pglib_opf_case200_pserc.m
%%%%%%%%%%%%%%%%%%%%%%%%%%%%%%%%%%%%%%%%%%%%%%%%%%%%%%%%%%%%%%%%%%%%%%%%%%%
%%%%                                                                  %%%%%
%%%%    IEEE PES Power Grid Library - Optimal Power Flow - v17.08     %%%%%
%%%%          (https://github.com/power-grid-lib/pglib-opf)           %%%%%
%%%%               Benchmark Group - Typical Operations               %%%%%
%%%%                        29 - August - 2017                        %%%%%
%%%%                                                                  %%%%%
%%%%%%%%%%%%%%%%%%%%%%%%%%%%%%%%%%%%%%%%%%%%%%%%%%%%%%%%%%%%%%%%%%%%%%%%%%%
%
%   This is an entirely synthetic 200 bus case, geographically situated
%   in the central part of the US state of Illinois. The case is
%   designed with a 230 and 115 kV transmission network to serve a load
%   that roughly mimics the actual population of its geographic
%   footprint. The synthetic transmission system was designed by
%   algorithms described in [1] to be statistically similar to actual
%   transmission system models but without modeling any actual lines.
%
%   When publishing results based on this data, please cite:
%
%   [1] A.B. Birchfield, T. Xu, K.M. Gegner, K.S. Shetye, T.J. Overbye,
%       "Grid Structural Characteristics as Validation Criteria for
%       Synthetic Networks," IEEE Transactions on Power Systems, 2017.
%
%   Created from Illinois200_DEC-06-2016_v19.pwb, saved by
%   PowerWorld Simulator, version 20 Beta, build date December 2, 2016,
%   then by MATPOWER 6.0.
%
%   Copyright (c) 2016, Power Systems Engineering Research Center (PSERC)
%   Licensed under the Creative Commons Attribution 4.0 International license,
%   http://creativecommons.org/licenses/by/4.0/
%
function mpc = pglib_opf_case200_pserc
mpc.version = '2';
mpc.baseMVA = 100.0;

%% bus data
%	bus_i	type	Pd	Qd	Gs	Bs	area	Vm	Va	baseKV	zone	Vmax	Vmin
mpc.bus = [
	1	 1	 0.0	 0.0	 0.0	 0.0	 1	    1.00000	    0.00000	 115.0	 1	    1.10000	    0.90000;
	2	 1	 10.95	 3.12	 0.0	 0.0	 1	    1.00000	    0.00000	 115.0	 1	    1.10000	    0.90000;
	3	 1	 0.0	 0.0	 0.0	 0.0	 1	    1.00000	    0.00000	 115.0	 1	    1.10000	    0.90000;
	4	 1	 2.72	 0.77	 0.0	 0.0	 1	    1.00000	    0.00000	 115.0	 1	    1.10000	    0.90000;
	5	 1	 0.0	 0.0	 0.0	 0.0	 1	    1.00000	    0.00000	 115.0	 1	    1.10000	    0.90000;
	6	 1	 12.5	 3.56	 0.0	 0.0	 1	    1.00000	    0.00000	 115.0	 1	    1.10000	    0.90000;
	7	 1	 0.0	 0.0	 0.0	 0.0	 1	    1.00000	    0.00000	 115.0	 1	    1.10000	    0.90000;
	8	 1	 35.2	 10.03	 0.0	 0.0	 1	    1.00000	    0.00000	 115.0	 1	    1.10000	    0.90000;
	9	 1	 0.0	 0.0	 0.0	 0.0	 1	    1.00000	    0.00000	 115.0	 1	    1.10000	    0.90000;
	10	 1	 63.29	 18.04	 0.0	 0.0	 1	    1.00000	    0.00000	 115.0	 1	    1.10000	    0.90000;
	11	 1	 0.0	 0.0	 0.0	 0.0	 1	    1.00000	    0.00000	 115.0	 1	    1.10000	    0.90000;
	12	 1	 0.49	 0.14	 0.0	 0.0	 1	    1.00000	    0.00000	 115.0	 1	    1.10000	    0.90000;
	13	 1	 4.04	 1.15	 0.0	 0.0	 1	    1.00000	    0.00000	 115.0	 1	    1.10000	    0.90000;
	14	 1	 0.0	 0.0	 0.0	 0.0	 1	    1.00000	    0.00000	 230.0	 1	    1.10000	    0.90000;
	15	 1	 0.0	 0.0	 0.0	 30.0	 1	    1.00000	    0.00000	 115.0	 1	    1.10000	    0.90000;
	16	 1	 71.7	 20.44	 0.0	 0.0	 1	    1.00000	    0.00000	 115.0	 1	    1.10000	    0.90000;
	17	 1	 0.0	 0.0	 0.0	 0.0	 1	    1.00000	    0.00000	 115.0	 1	    1.10000	    0.90000;
	18	 1	 1.14	 0.33	 0.0	 0.0	 1	    1.00000	    0.00000	 115.0	 1	    1.10000	    0.90000;
	19	 1	 1.23	 0.35	 0.0	 0.0	 1	    1.00000	    0.00000	 115.0	 1	    1.10000	    0.90000;
	20	 1	 1.81	 0.52	 0.0	 0.0	 1	    1.00000	    0.00000	 115.0	 1	    1.10000	    0.90000;
	21	 1	 7.38	 2.1	 0.0	 0.0	 1	    1.00000	    0.00000	 115.0	 1	    1.10000	    0.90000;
	22	 1	 0.0	 0.0	 0.0	 0.0	 1	    1.00000	    0.00000	 115.0	 1	    1.10000	    0.90000;
	23	 1	 2.26	 0.64	 0.0	 0.0	 1	    1.00000	    0.00000	 115.0	 1	    1.10000	    0.90000;
	24	 1	 3.84	 1.09	 0.0	 0.0	 1	    1.00000	    0.00000	 115.0	 1	    1.10000	    0.90000;
	25	 1	 0.0	 0.0	 0.0	 0.0	 1	    1.00000	    0.00000	 115.0	 1	    1.10000	    0.90000;
	26	 1	 2.13	 0.61	 0.0	 0.0	 1	    1.00000	    0.00000	 115.0	 1	    1.10000	    0.90000;
	27	 1	 0.0	 0.0	 0.0	 0.0	 1	    1.00000	    0.00000	 115.0	 1	    1.10000	    0.90000;
	28	 1	 3.74	 1.07	 0.0	 0.0	 1	    1.00000	    0.00000	 115.0	 1	    1.10000	    0.90000;
	29	 1	 0.0	 0.0	 0.0	 0.0	 1	    1.00000	    0.00000	 115.0	 1	    1.10000	    0.90000;
	30	 1	 87.62	 24.97	 0.0	 0.0	 1	    1.00000	    0.00000	 115.0	 1	    1.10000	    0.90000;
	31	 1	 0.0	 0.0	 0.0	 0.0	 1	    1.00000	    0.00000	 115.0	 1	    1.10000	    0.90000;
	32	 1	 0.7	 0.2	 0.0	 0.0	 1	    1.00000	    0.00000	 115.0	 1	    1.10000	    0.90000;
	33	 1	 8.82	 2.51	 0.0	 0.0	 1	    1.00000	    0.00000	 115.0	 1	    1.10000	    0.90000;
	34	 1	 0.0	 0.0	 0.0	 0.0	 1	    1.00000	    0.00000	 115.0	 1	    1.10000	    0.90000;
	35	 1	 33.26	 9.48	 0.0	 0.0	 1	    1.00000	    0.00000	 115.0	 1	    1.10000	    0.90000;
	36	 1	 0.0	 0.0	 0.0	 0.0	 1	    1.00000	    0.00000	 115.0	 1	    1.10000	    0.90000;
	37	 1	 4.89	 1.39	 0.0	 0.0	 1	    1.00000	    0.00000	 115.0	 1	    1.10000	    0.90000;
	38	 1	 40.81	 11.63	 0.0	 0.0	 1	    1.00000	    0.00000	 115.0	 1	    1.10000	    0.90000;
	39	 1	 11.86	 3.38	 0.0	 0.0	 1	    1.00000	    0.00000	 115.0	 1	    1.10000	    0.90000;
	40	 1	 3.28	 0.93	 0.0	 0.0	 1	    1.00000	    0.00000	 115.0	 1	    1.10000	    0.90000;
	41	 1	 61.87	 17.63	 0.0	 0.0	 1	    1.00000	    0.00000	 115.0	 1	    1.10000	    0.90000;
	42	 1	 17.01	 4.85	 0.0	 0.0	 1	    1.00000	    0.00000	 115.0	 1	    1.10000	    0.90000;
	43	 1	 3.09	 0.88	 0.0	 0.0	 1	    1.00000	    0.00000	 115.0	 1	    1.10000	    0.90000;
	44	 1	 6.65	 1.89	 0.0	 0.0	 1	    1.00000	    0.00000	 115.0	 1	    1.10000	    0.90000;
	45	 1	 0.0	 0.0	 0.0	 0.0	 1	    1.00000	    0.00000	 230.0	 1	    1.10000	    0.90000;
	46	 1	 8.68	 2.47	 0.0	 0.0	 1	    1.00000	    0.00000	 115.0	 1	    1.10000	    0.90000;
	47	 1	 2.47	 0.71	 0.0	 0.0	 1	    1.00000	    0.00000	 115.0	 1	    1.10000	    0.90000;
	48	 1	 2.87	 0.82	 0.0	 0.0	 1	    1.00000	    0.00000	 115.0	 1	    1.10000	    0.90000;
	49	 2	 0.0	 0.0	 0.0	 0.0	 1	    1.00000	    0.00000	 13.8	 1	    1.10000	    0.90000;
	50	 2	 0.0	 0.0	 0.0	 0.0	 1	    1.00000	    0.00000	 13.8	 1	    1.10000	    0.90000;
	51	 2	 0.0	 0.0	 0.0	 0.0	 1	    1.00000	    0.00000	 13.8	 1	    1.10000	    0.90000;
	52	 2	 0.0	 0.0	 0.0	 0.0	 1	    1.00000	    0.00000	 13.8	 1	    1.10000	    0.90000;
	53	 2	 0.0	 0.0	 0.0	 0.0	 1	    1.00000	    0.00000	 13.8	 1	    1.10000	    0.90000;
	54	 1	 4.27	 1.22	 0.0	 0.0	 1	    1.00000	    0.00000	 115.0	 1	    1.10000	    0.90000;
	55	 1	 0.0	 0.0	 0.0	 0.0	 1	    1.00000	    0.00000	 230.0	 1	    1.10000	    0.90000;
	56	 1	 1.79	 0.51	 0.0	 0.0	 1	    1.00000	    0.00000	 115.0	 1	    1.10000	    0.90000;
	57	 1	 4.52	 1.29	 0.0	 0.0	 1	    1.00000	    0.00000	 115.0	 1	    1.10000	    0.90000;
	58	 1	 5.79	 1.65	 0.0	 0.0	 1	    1.00000	    0.00000	 115.0	 1	    1.10000	    0.90000;
	59	 1	 7.02	 2.0	 0.0	 0.0	 1	    1.00000	    0.00000	 115.0	 1	    1.10000	    0.90000;
	60	 1	 5.63	 1.6	 0.0	 0.0	 1	    1.00000	    0.00000	 115.0	 1	    1.10000	    0.90000;
	61	 1	 28.14	 8.02	 0.0	 0.0	 1	    1.00000	    0.00000	 115.0	 1	    1.10000	    0.90000;
	62	 1	 34.29	 9.77	 0.0	 0.0	 1	    1.00000	    0.00000	 115.0	 1	    1.10000	    0.90000;
	63	 1	 12.79	 3.64	 0.0	 0.0	 1	    1.00000	    0.00000	 115.0	 1	    1.10000	    0.90000;
	64	 1	 0.0	 0.0	 0.0	 0.0	 1	    1.00000	    0.00000	 115.0	 1	    1.10000	    0.90000;
	65	 2	 0.0	 0.0	 0.0	 0.0	 1	    1.00000	    0.00000	 13.8	 1	    1.10000	    0.90000;
	66	 1	 0.0	 0.0	 0.0	 0.0	 1	    1.00000	    0.00000	 115.0	 1	    1.10000	    0.90000;
	67	 2	 0.0	 0.0	 0.0	 0.0	 1	    1.00000	    0.00000	 13.8	 1	    1.10000	    0.90000;
	68	 2	 0.0	 0.0	 0.0	 0.0	 1	    1.00000	    0.00000	 13.8	 1	    1.10000	    0.90000;
	69	 2	 0.0	 0.0	 0.0	 0.0	 1	    1.00000	    0.00000	 13.8	 1	    1.10000	    0.90000;
	70	 2	 0.0	 0.0	 0.0	 0.0	 1	    1.00000	    0.00000	 13.8	 1	    1.10000	    0.90000;
	71	 2	 0.0	 0.0	 0.0	 0.0	 1	    1.00000	    0.00000	 13.8	 1	    1.10000	    0.90000;
	72	 2	 0.0	 0.0	 0.0	 0.0	 1	    1.00000	    0.00000	 13.8	 1	    1.10000	    0.90000;
	73	 2	 0.0	 0.0	 0.0	 0.0	 1	    1.00000	    0.00000	 13.8	 1	    1.10000	    0.90000;
	74	 1	 29.51	 8.41	 0.0	 0.0	 1	    1.00000	    0.00000	 115.0	 1	    1.10000	    0.90000;
	75	 1	 5.34	 1.52	 0.0	 0.0	 1	    1.00000	    0.00000	 115.0	 1	    1.10000	    0.90000;
	76	 2	 0.0	 0.0	 0.0	 0.0	 1	    1.00000	    0.00000	 13.8	 1	    1.10000	    0.90000;
	77	 2	 0.0	 0.0	 0.0	 0.0	 1	    1.00000	    0.00000	 13.8	 1	    1.10000	    0.90000;
	78	 2	 0.0	 0.0	 0.0	 0.0	 1	    1.00000	    0.00000	 13.8	 1	    1.10000	    0.90000;
	79	 2	 0.0	 0.0	 0.0	 0.0	 1	    1.00000	    0.00000	 13.8	 1	    1.10000	    0.90000;
	80	 1	 2.38	 0.68	 0.0	 0.0	 1	    1.00000	    0.00000	 115.0	 1	    1.10000	    0.90000;
	81	 1	 0.0	 0.0	 0.0	 0.0	 1	    1.00000	    0.00000	 230.0	 1	    1.10000	    0.90000;
	82	 1	 11.96	 3.41	 0.0	 0.0	 1	    1.00000	    0.00000	 115.0	 1	    1.10000	    0.90000;
	83	 1	 4.29	 1.22	 0.0	 0.0	 1	    1.00000	    0.00000	 115.0	 1	    1.10000	    0.90000;
	84	 1	 5.56	 1.59	 0.0	 0.0	 1	    1.00000	    0.00000	 115.0	 1	    1.10000	    0.90000;
	85	 1	 7.74	 2.21	 0.0	 0.0	 1	    1.00000	    0.00000	 115.0	 1	    1.10000	    0.90000;
	86	 1	 12.23	 3.49	 0.0	 0.0	 1	    1.00000	    0.00000	 115.0	 1	    1.10000	    0.90000;
	87	 1	 0.0	 0.0	 0.0	 0.0	 1	    1.00000	    0.00000	 230.0	 1	    1.10000	    0.90000;
	88	 1	 79.66	 22.7	 0.0	 0.0	 1	    1.00000	    0.00000	 115.0	 1	    1.10000	    0.90000;
	89	 1	 86.04	 24.52	 0.0	 0.0	 1	    1.00000	    0.00000	 115.0	 1	    1.10000	    0.90000;
	90	 2	 0.0	 0.0	 0.0	 0.0	 1	    1.00000	    0.00000	 13.8	 1	    1.10000	    0.90000;
	91	 2	 0.0	 0.0	 0.0	 0.0	 1	    1.00000	    0.00000	 13.8	 1	    1.10000	    0.90000;
	92	 2	 0.0	 0.0	 0.0	 0.0	 1	    1.00000	    0.00000	 13.8	 1	    1.10000	    0.90000;
	93	 1	 4.91	 1.4	 0.0	 0.0	 1	    1.00000	    0.00000	 115.0	 1	    1.10000	    0.90000;
	94	 2	 0.0	 0.0	 0.0	 0.0	 1	    1.00000	    0.00000	 13.8	 1	    1.10000	    0.90000;
	95	 1	 4.11	 1.17	 0.0	 30.0	 1	    1.00000	    0.00000	 115.0	 1	    1.10000	    0.90000;
	96	 1	 4.05	 1.15	 0.0	 0.0	 1	    1.00000	    0.00000	 115.0	 1	    1.10000	    0.90000;
	97	 1	 10.87	 3.1	 0.0	 0.0	 1	    1.00000	    0.00000	 115.0	 1	    1.10000	    0.90000;
	98	 1	 0.0	 0.0	 0.0	 0.0	 1	    1.00000	    0.00000	 230.0	 1	    1.10000	    0.90000;
	99	 1	 18.04	 5.14	 0.0	 0.0	 1	    1.00000	    0.00000	 115.0	 1	    1.10000	    0.90000;
	100	 1	 60.35	 17.2	 0.0	 80.0	 1	    1.00000	    0.00000	 115.0	 1	    1.10000	    0.90000;
	101	 1	 0.77	 0.22	 0.0	 0.0	 1	    1.00000	    0.00000	 115.0	 1	    1.10000	    0.90000;
	102	 1	 0.0	 0.0	 0.0	 0.0	 1	    1.00000	    0.00000	 230.0	 1	    1.10000	    0.90000;
	103	 1	 0.0	 0.0	 0.0	 0.0	 1	    1.00000	    0.00000	 115.0	 1	    1.10000	    0.90000;
	104	 2	 0.0	 0.0	 0.0	 0.0	 1	    1.00000	    0.00000	 13.8	 1	    1.10000	    0.90000;
	105	 2	 0.0	 0.0	 0.0	 0.0	 1	    1.00000	    0.00000	 13.8	 1	    1.10000	    0.90000;
	106	 1	 2.82	 0.8	 0.0	 0.0	 1	    1.00000	    0.00000	 115.0	 1	    1.10000	    0.90000;
	107	 1	 71.96	 20.51	 0.0	 0.0	 1	    1.00000	    0.00000	 115.0	 1	    1.10000	    0.90000;
	108	 1	 13.97	 3.98	 0.0	 0.0	 1	    1.00000	    0.00000	 115.0	 1	    1.10000	    0.90000;
	109	 1	 8.26	 2.35	 0.0	 0.0	 1	    1.00000	    0.00000	 115.0	 1	    1.10000	    0.90000;
	110	 1	 16.1	 4.59	 0.0	 0.0	 1	    1.00000	    0.00000	 115.0	 1	    1.10000	    0.90000;
	111	 1	 14.23	 4.05	 0.0	 0.0	 1	    1.00000	    0.00000	 115.0	 1	    1.10000	    0.90000;
	112	 1	 0.0	 0.0	 0.0	 0.0	 1	    1.00000	    0.00000	 230.0	 1	    1.10000	    0.90000;
	113	 1	 0.0	 0.0	 0.0	 0.0	 1	    1.00000	    0.00000	 115.0	 1	    1.10000	    0.90000;
	114	 2	 0.0	 0.0	 0.0	 0.0	 1	    1.00000	    0.00000	 13.8	 1	    1.10000	    0.90000;
	115	 2	 0.0	 0.0	 0.0	 0.0	 1	    1.00000	    0.00000	 13.8	 1	    1.10000	    0.90000;
	116	 1	 0.0	 0.0	 0.0	 0.0	 1	    1.00000	    0.00000	 230.0	 1	    1.10000	    0.90000;
	117	 1	 50.54	 14.4	 0.0	 0.0	 1	    1.00000	    0.00000	 115.0	 1	    1.10000	    0.90000;
	118	 1	 5.84	 1.66	 0.0	 0.0	 1	    1.00000	    0.00000	 115.0	 1	    1.10000	    0.90000;
	119	 1	 26.03	 7.42	 0.0	 0.0	 1	    1.00000	    0.00000	 115.0	 1	    1.10000	    0.90000;
	120	 1	 2.88	 0.82	 0.0	 0.0	 1	    1.00000	    0.00000	 115.0	 1	    1.10000	    0.90000;
	121	 1	 0.0	 0.0	 0.0	 0.0	 1	    1.00000	    0.00000	 230.0	 1	    1.10000	    0.90000;
	122	 1	 21.14	 6.02	 0.0	 0.0	 1	    1.00000	    0.00000	 115.0	 1	    1.10000	    0.90000;
	123	 1	 0.0	 0.0	 0.0	 0.0	 1	    1.00000	    0.00000	 230.0	 1	    1.10000	    0.90000;
	124	 1	 0.0	 0.0	 0.0	 0.0	 1	    1.00000	    0.00000	 115.0	 1	    1.10000	    0.90000;
	125	 2	 0.0	 0.0	 0.0	 0.0	 1	    1.00000	    0.00000	 13.8	 1	    1.10000	    0.90000;
	126	 2	 0.0	 0.0	 0.0	 0.0	 1	    1.00000	    0.00000	 13.8	 1	    1.10000	    0.90000;
	127	 2	 0.0	 0.0	 0.0	 0.0	 1	    1.00000	    0.00000	 13.8	 1	    1.10000	    0.90000;
	128	 1	 0.0	 0.0	 0.0	 0.0	 1	    1.00000	    0.00000	 230.0	 1	    1.10000	    0.90000;
	129	 1	 105.76	 30.14	 0.0	 0.0	 1	    1.00000	    0.00000	 115.0	 1	    1.10000	    0.90000;
	130	 1	 6.02	 1.72	 0.0	 0.0	 1	    1.00000	    0.00000	 115.0	 1	    1.10000	    0.90000;
	131	 1	 44.86	 12.79	 0.0	 0.0	 1	    1.00000	    0.00000	 115.0	 1	    1.10000	    0.90000;
	132	 1	 39.98	 11.39	 0.0	 0.0	 1	    1.00000	    0.00000	 115.0	 1	    1.10000	    0.90000;
	133	 1	 0.0	 0.0	 0.0	 0.0	 1	    1.00000	    0.00000	 230.0	 1	    1.10000	    0.90000;
	134	 1	 0.0	 0.0	 0.0	 0.0	 1	    1.00000	    0.00000	 115.0	 1	    1.10000	    0.90000;
	135	 2	 0.0	 0.0	 0.0	 0.0	 1	    1.00000	    0.00000	 13.8	 1	    1.10000	    0.90000;
	136	 2	 0.0	 0.0	 0.0	 0.0	 1	    1.00000	    0.00000	 13.8	 1	    1.10000	    0.90000;
	137	 1	 1.86	 0.53	 0.0	 0.0	 1	    1.00000	    0.00000	 115.0	 1	    1.10000	    0.90000;
	138	 1	 3.29	 0.94	 0.0	 0.0	 1	    1.00000	    0.00000	 115.0	 1	    1.10000	    0.90000;
	139	 1	 10.14	 2.89	 0.0	 0.0	 1	    1.00000	    0.00000	 115.0	 1	    1.10000	    0.90000;
	140	 1	 12.18	 3.47	 0.0	 0.0	 1	    1.00000	    0.00000	 115.0	 1	    1.10000	    0.90000;
	141	 1	 2.11	 0.6	 0.0	 0.0	 1	    1.00000	    0.00000	 115.0	 1	    1.10000	    0.90000;
	142	 1	 55.26	 15.75	 0.0	 0.0	 1	    1.00000	    0.00000	 115.0	 1	    1.10000	    0.90000;
	143	 1	 43.22	 12.32	 0.0	 0.0	 1	    1.00000	    0.00000	 115.0	 1	    1.10000	    0.90000;
	144	 1	 13.43	 3.83	 0.0	 0.0	 1	    1.00000	    0.00000	 115.0	 1	    1.10000	    0.90000;
	145	 1	 28.32	 8.07	 0.0	 0.0	 1	    1.00000	    0.00000	 115.0	 1	    1.10000	    0.90000;
	146	 1	 0.0	 0.0	 0.0	 0.0	 1	    1.00000	    0.00000	 115.0	 1	    1.10000	    0.90000;
	147	 2	 0.0	 0.0	 0.0	 0.0	 1	    1.00000	    0.00000	 13.8	 1	    1.10000	    0.90000;
	148	 1	 47.49	 13.53	 0.0	 0.0	 1	    1.00000	    0.00000	 115.0	 1	    1.10000	    0.90000;
	149	 1	 0.0	 0.0	 0.0	 0.0	 1	    1.00000	    0.00000	 230.0	 1	    1.10000	    0.90000;
	150	 1	 0.0	 0.0	 0.0	 0.0	 1	    1.00000	    0.00000	 115.0	 1	    1.10000	    0.90000;
	151	 2	 0.0	 0.0	 0.0	 0.0	 1	    1.00000	    0.00000	 13.8	 1	    1.10000	    0.90000;
	152	 2	 0.0	 0.0	 0.0	 0.0	 1	    1.00000	    0.00000	 13.8	 1	    1.10000	    0.90000;
	153	 2	 0.0	 0.0	 0.0	 0.0	 1	    1.00000	    0.00000	 13.8	 1	    1.10000	    0.90000;
	154	 2	 0.0	 0.0	 0.0	 0.0	 1	    1.00000	    0.00000	 13.8	 1	    1.10000	    0.90000;
	155	 2	 0.0	 0.0	 0.0	 0.0	 1	    1.00000	    0.00000	 13.8	 1	    1.10000	    0.90000;
	156	 1	 0.0	 0.0	 0.0	 0.0	 1	    1.00000	    0.00000	 230.0	 1	    1.10000	    0.90000;
	157	 1	 21.88	 6.24	 0.0	 0.0	 1	    1.00000	    0.00000	 115.0	 1	    1.10000	    0.90000;
	158	 1	 14.36	 4.09	 0.0	 0.0	 1	    1.00000	    0.00000	 115.0	 1	    1.10000	    0.90000;
	159	 1	 2.22	 0.63	 0.0	 0.0	 1	    1.00000	    0.00000	 115.0	 1	    1.10000	    0.90000;
	160	 1	 0.0	 0.0	 0.0	 0.0	 1	    1.00000	    0.00000	 115.0	 1	    1.10000	    0.90000;
	161	 2	 0.0	 0.0	 0.0	 0.0	 1	    1.00000	    0.00000	 13.8	 1	    1.10000	    0.90000;
	162	 1	 2.15	 0.61	 0.0	 0.0	 1	    1.00000	    0.00000	 115.0	 1	    1.10000	    0.90000;
	163	 1	 73.93	 21.07	 0.0	 0.0	 1	    1.00000	    0.00000	 115.0	 1	    1.10000	    0.90000;
	164	 2	 0.0	 0.0	 0.0	 0.0	 1	    1.00000	    0.00000	 13.8	 1	    1.10000	    0.90000;
	165	 2	 0.0	 0.0	 0.0	 0.0	 1	    1.00000	    0.00000	 13.8	 1	    1.10000	    0.90000;
	166	 2	 0.0	 0.0	 0.0	 0.0	 1	    1.00000	    0.00000	 13.8	 1	    1.10000	    0.90000;
	167	 2	 0.0	 0.0	 0.0	 0.0	 1	    1.00000	    0.00000	 13.8	 1	    1.10000	    0.90000;
	168	 2	 0.0	 0.0	 0.0	 0.0	 1	    1.00000	    0.00000	 13.8	 1	    1.10000	    0.90000;
	169	 2	 0.0	 0.0	 0.0	 0.0	 1	    1.00000	    0.00000	 13.8	 1	    1.10000	    0.90000;
	170	 2	 0.0	 0.0	 0.0	 0.0	 1	    1.00000	    0.00000	 13.8	 1	    1.10000	    0.90000;
	171	 1	 12.49	 3.56	 0.0	 0.0	 1	    1.00000	    0.00000	 115.0	 1	    1.10000	    0.90000;
	172	 1	 8.68	 2.47	 0.0	 0.0	 1	    1.00000	    0.00000	 115.0	 1	    1.10000	    0.90000;
	173	 1	 14.06	 4.01	 0.0	 0.0	 1	    1.00000	    0.00000	 115.0	 1	    1.10000	    0.90000;
	174	 1	 4.47	 1.27	 0.0	 0.0	 1	    1.00000	    0.00000	 115.0	 1	    1.10000	    0.90000;
	175	 1	 11.8	 3.36	 0.0	 0.0	 1	    1.00000	    0.00000	 115.0	 1	    1.10000	    0.90000;
	176	 1	 30.69	 8.75	 0.0	 0.0	 1	    1.00000	    0.00000	 115.0	 1	    1.10000	    0.90000;
	177	 1	 15.45	 4.4	 0.0	 0.0	 1	    1.00000	    0.00000	 115.0	 1	    1.10000	    0.90000;
	178	 1	 0.0	 0.0	 0.0	 0.0	 1	    1.00000	    0.00000	 230.0	 1	    1.10000	    0.90000;
	179	 1	 38.1	 10.86	 0.0	 0.0	 1	    1.00000	    0.00000	 115.0	 1	    1.10000	    0.90000;
	180	 1	 12.5	 3.56	 0.0	 0.0	 1	    1.00000	    0.00000	 115.0	 1	    1.10000	    0.90000;
	181	 1	 76.87	 21.91	 0.0	 0.0	 1	    1.00000	    0.00000	 115.0	 1	    1.10000	    0.90000;
	182	 2	 0.0	 0.0	 0.0	 0.0	 1	    1.00000	    0.00000	 13.8	 1	    1.10000	    0.90000;
	183	 2	 0.0	 0.0	 0.0	 0.0	 1	    1.00000	    0.00000	 13.8	 1	    1.10000	    0.90000;
	184	 1	 17.26	 4.92	 0.0	 0.0	 1	    1.00000	    0.00000	 115.0	 1	    1.10000	    0.90000;
	185	 1	 17.42	 4.96	 0.0	 0.0	 1	    1.00000	    0.00000	 115.0	 1	    1.10000	    0.90000;
	186	 1	 3.12	 0.89	 0.0	 0.0	 1	    1.00000	    0.00000	 115.0	 1	    1.10000	    0.90000;
	187	 1	 0.0	 0.0	 0.0	 0.0	 1	    1.00000	    0.00000	 230.0	 1	    1.10000	    0.90000;
	188	 1	 0.0	 0.0	 0.0	 0.0	 1	    1.00000	    0.00000	 115.0	 1	    1.10000	    0.90000;
	189	 3	 0.0	 0.0	 0.0	 0.0	 1	    1.00000	    0.00000	 13.8	 1	    1.10000	    0.90000;
	190	 1	 26.41	 7.53	 0.0	 0.0	 1	    1.00000	    0.00000	 115.0	 1	    1.10000	    0.90000;
	191	 1	 11.67	 3.32	 0.0	 0.0	 1	    1.00000	    0.00000	 115.0	 1	    1.10000	    0.90000;
	192	 1	 72.21	 20.58	 0.0	 0.0	 1	    1.00000	    0.00000	 115.0	 1	    1.10000	    0.90000;
	193	 1	 32.61	 9.29	 0.0	 0.0	 1	    1.00000	    0.00000	 115.0	 1	    1.10000	    0.90000;
	194	 1	 60.67	 17.29	 0.0	 50.0	 1	    1.00000	    0.00000	 115.0	 1	    1.10000	    0.90000;
	195	 1	 0.0	 0.0	 0.0	 0.0	 1	    1.00000	    0.00000	 115.0	 1	    1.10000	    0.90000;
	196	 2	 0.0	 0.0	 0.0	 0.0	 1	    1.00000	    0.00000	 13.8	 1	    1.10000	    0.90000;
	197	 2	 0.0	 0.0	 0.0	 0.0	 1	    1.00000	    0.00000	 13.8	 1	    1.10000	    0.90000;
	198	 1	 7.97	 2.27	 0.0	 0.0	 1	    1.00000	    0.00000	 115.0	 1	    1.10000	    0.90000;
	199	 1	 6.69	 1.91	 0.0	 0.0	 1	    1.00000	    0.00000	 115.0	 1	    1.10000	    0.90000;
	200	 1	 14.97	 4.27	 0.0	 0.0	 1	    1.00000	    0.00000	 115.0	 1	    1.10000	    0.90000;
];

%% generator data
%	bus	Pg	Qg	Qmax	Qmin	Vg	mBase	status	Pmax	Pmin	Pc1	Pc2	Qc1min	Qc1max	Qc2min	Qc2max	ramp_agc	ramp_10	ramp_30	ramp_q	apf
mpc.gen = [
	49	 2.945	 0.78	 2.11	 -0.55	 1.04	 5.44	 1	 4.53	 1.36	 0.0	 0.0	 0.0	 0.0	 0.0	 0.0	 0.0	 0.0	 0.0	 0.0	 0.0;
	50	 2.945	 0.78	 2.11	 -0.55	 1.04	 5.44	 1	 4.53	 1.36	 0.0	 0.0	 0.0	 0.0	 0.0	 0.0	 0.0	 0.0	 0.0	 0.0	 0.0;
	51	 2.945	 0.78	 2.11	 -0.55	 1.04	 5.44	 1	 4.53	 1.36	 0.0	 0.0	 0.0	 0.0	 0.0	 0.0	 0.0	 0.0	 0.0	 0.0	 0.0;
	52	 2.945	 0.78	 2.11	 -0.55	 1.04	 5.44	 1	 4.53	 1.36	 0.0	 0.0	 0.0	 0.0	 0.0	 0.0	 0.0	 0.0	 0.0	 0.0	 0.0;
	53	 5.895	 1.56	 4.23	 -1.11	 1.04	 10.88	 1	 9.07	 2.72	 0.0	 0.0	 0.0	 0.0	 0.0	 0.0	 0.0	 0.0	 0.0	 0.0	 0.0;
	65	 97.76	 5.19	 32.04	 -21.66	 1.04	 180.48	 1	 150.4	 45.12	 0.0	 0.0	 0.0	 0.0	 0.0	 0.0	 0.0	 0.0	 0.0	 0.0	 0.0;
	67	 3.055	 0.81	 2.19	 -0.57	 1.04	 5.64	 1	 4.7	 1.41	 0.0	 0.0	 0.0	 0.0	 0.0	 0.0	 0.0	 0.0	 0.0	 0.0	 0.0;
	68	 18.15	 4.8	 13.01	 -3.41	 1.04	 33.5	 1	 27.92	 8.38	 0.0	 0.0	 0.0	 0.0	 0.0	 0.0	 0.0	 0.0	 0.0	 0.0	 0.0;
	69	 18.15	 4.8	 13.01	 -3.41	 1.04	 33.5	 1	 27.92	 8.38	 0.0	 0.0	 0.0	 0.0	 0.0	 0.0	 0.0	 0.0	 0.0	 0.0	 0.0;
	70	 18.15	 4.8	 13.01	 -3.41	 1.04	 33.5	 1	 27.92	 8.38	 0.0	 0.0	 0.0	 0.0	 0.0	 0.0	 0.0	 0.0	 0.0	 0.0	 0.0;
	71	 18.15	 4.8	 13.01	 -3.41	 1.04	 33.5	 1	 27.92	 8.38	 0.0	 0.0	 0.0	 0.0	 0.0	 0.0	 0.0	 0.0	 0.0	 0.0	 0.0;
	72	 18.15	 4.8	 13.01	 -3.41	 1.04	 33.5	 1	 27.92	 8.38	 0.0	 0.0	 0.0	 0.0	 0.0	 0.0	 0.0	 0.0	 0.0	 0.0	 0.0;
	73	 18.15	 4.8	 13.01	 -3.41	 1.04	 33.5	 1	 27.92	 8.38	 0.0	 0.0	 0.0	 0.0	 0.0	 0.0	 0.0	 0.0	 0.0	 0.0	 0.0;
	76	 2.6	 0.8	 2.04	 -0.44	 1.04	 4.8	 1	 4.0	 1.2	 0.0	 0.0	 0.0	 0.0	 0.0	 0.0	 0.0	 0.0	 0.0	 0.0	 0.0;
	77	 1.56	 0.475	 1.22	 -0.27	 1.04	 2.88	 1	 2.4	 0.72	 0.0	 0.0	 0.0	 0.0	 0.0	 0.0	 0.0	 0.0	 0.0	 0.0	 0.0;
	78	 11.7	 3.58	 9.16	 -2.0	 1.04	 21.6	 0	 18.0	 5.4	 0.0	 0.0	 0.0	 0.0	 0.0	 0.0	 0.0	 0.0	 0.0	 0.0	 0.0;
	79	 11.7	 3.58	 9.16	 -2.0	 1.04	 21.6	 0	 18.0	 5.4	 0.0	 0.0	 0.0	 0.0	 0.0	 0.0	 0.0	 0.0	 0.0	 0.0	 0.0;
	90	 2.08	 0.635	 1.63	 -0.36	 1.04	 3.84	 1	 3.2	 0.96	 0.0	 0.0	 0.0	 0.0	 0.0	 0.0	 0.0	 0.0	 0.0	 0.0	 0.0;
	91	 3.25	 1.0	 2.55	 -0.55	 1.04	 6.0	 1	 5.0	 1.5	 0.0	 0.0	 0.0	 0.0	 0.0	 0.0	 0.0	 0.0	 0.0	 0.0	 0.0;
	92	 4.095	 1.255	 3.21	 -0.7	 1.04	 7.56	 0	 6.3	 1.89	 0.0	 0.0	 0.0	 0.0	 0.0	 0.0	 0.0	 0.0	 0.0	 0.0	 0.0;
	94	 11.7	 3.095	 8.39	 -2.2	 1.04	 21.6	 1	 18.0	 5.4	 0.0	 0.0	 0.0	 0.0	 0.0	 0.0	 0.0	 0.0	 0.0	 0.0	 0.0;
	104	 64.35	 3.415	 21.09	 -14.26	 1.04	 118.8	 1	 99.0	 29.7	 0.0	 0.0	 0.0	 0.0	 0.0	 0.0	 0.0	 0.0	 0.0	 0.0	 0.0;
	105	 128.7	 6.83	 42.17	 -28.51	 1.04	 237.6	 1	 198.0	 59.4	 0.0	 0.0	 0.0	 0.0	 0.0	 0.0	 0.0	 0.0	 0.0	 0.0	 0.0;
	114	 1.105	 0.06	 0.36	 -0.24	 1.04	 2.04	 1	 1.7	 0.51	 0.0	 0.0	 0.0	 0.0	 0.0	 0.0	 0.0	 0.0	 0.0	 0.0	 0.0;
	115	 97.5	 5.175	 31.95	 -21.6	 1.04	 180.0	 1	 150.0	 45.0	 0.0	 0.0	 0.0	 0.0	 0.0	 0.0	 0.0	 0.0	 0.0	 0.0	 0.0;
	125	 84.535	 22.365	 60.6	 -15.87	 1.04	 156.06	 1	 130.05	 39.02	 0.0	 0.0	 0.0	 0.0	 0.0	 0.0	 0.0	 0.0	 0.0	 0.0	 0.0;
	126	 84.535	 22.365	 60.6	 -15.87	 1.04	 156.06	 1	 130.05	 39.02	 0.0	 0.0	 0.0	 0.0	 0.0	 0.0	 0.0	 0.0	 0.0	 0.0	 0.0;
	127	 84.535	 22.365	 60.6	 -15.87	 1.04	 156.06	 1	 130.05	 39.02	 0.0	 0.0	 0.0	 0.0	 0.0	 0.0	 0.0	 0.0	 0.0	 0.0	 0.0;
	135	 290.16	 76.78	 208.02	 -54.46	 1.04	 535.68	 1	 446.4	 133.92	 0.0	 0.0	 0.0	 0.0	 0.0	 0.0	 0.0	 0.0	 0.0	 0.0	 0.0;
	136	 290.16	 76.78	 208.02	 -54.46	 1.04	 535.68	 1	 446.4	 133.92	 0.0	 0.0	 0.0	 0.0	 0.0	 0.0	 0.0	 0.0	 0.0	 0.0	 0.0;
	147	 65.325	 3.47	 21.41	 -14.47	 1.04	 120.6	 1	 100.5	 30.15	 0.0	 0.0	 0.0	 0.0	 0.0	 0.0	 0.0	 0.0	 0.0	 0.0	 0.0;
	151	 3.51	 0.93	 2.52	 -0.66	 1.04	 6.48	 1	 5.4	 1.62	 0.0	 0.0	 0.0	 0.0	 0.0	 0.0	 0.0	 0.0	 0.0	 0.0	 0.0;
	152	 50.195	 13.285	 35.99	 -9.42	 1.04	 92.67	 1	 77.22	 23.17	 0.0	 0.0	 0.0	 0.0	 0.0	 0.0	 0.0	 0.0	 0.0	 0.0	 0.0;
	153	 50.195	 13.285	 35.99	 -9.42	 1.04	 92.67	 1	 77.22	 23.17	 0.0	 0.0	 0.0	 0.0	 0.0	 0.0	 0.0	 0.0	 0.0	 0.0	 0.0;
	154	 50.195	 13.285	 35.99	 -9.42	 1.04	 92.67	 1	 77.22	 23.17	 0.0	 0.0	 0.0	 0.0	 0.0	 0.0	 0.0	 0.0	 0.0	 0.0	 0.0;
	155	 50.195	 13.285	 35.99	 -9.42	 1.04	 92.67	 1	 77.22	 23.17	 0.0	 0.0	 0.0	 0.0	 0.0	 0.0	 0.0	 0.0	 0.0	 0.0	 0.0;
	161	 90.09	 27.585	 70.55	 -15.38	 1.04	 166.32	 0	 138.6	 41.58	 0.0	 0.0	 0.0	 0.0	 0.0	 0.0	 0.0	 0.0	 0.0	 0.0	 0.0;
	164	 7.8	 2.39	 6.11	 -1.33	 1.04	 14.4	 0	 12.0	 3.6	 0.0	 0.0	 0.0	 0.0	 0.0	 0.0	 0.0	 0.0	 0.0	 0.0	 0.0;
	165	 16.9	 5.17	 13.23	 -2.89	 1.04	 31.2	 0	 26.0	 7.8	 0.0	 0.0	 0.0	 0.0	 0.0	 0.0	 0.0	 0.0	 0.0	 0.0	 0.0;
	166	 6.11	 1.87	 4.78	 -1.04	 1.04	 11.28	 0	 9.4	 2.82	 0.0	 0.0	 0.0	 0.0	 0.0	 0.0	 0.0	 0.0	 0.0	 0.0	 0.0;
	167	 6.11	 1.87	 4.78	 -1.04	 1.04	 11.28	 1	 9.4	 2.82	 0.0	 0.0	 0.0	 0.0	 0.0	 0.0	 0.0	 0.0	 0.0	 0.0	 0.0;
	168	 6.11	 1.87	 4.78	 -1.04	 1.04	 11.28	 0	 9.4	 2.82	 0.0	 0.0	 0.0	 0.0	 0.0	 0.0	 0.0	 0.0	 0.0	 0.0	 0.0;
	169	 6.11	 1.87	 4.78	 -1.04	 1.04	 11.28	 0	 9.4	 2.82	 0.0	 0.0	 0.0	 0.0	 0.0	 0.0	 0.0	 0.0	 0.0	 0.0	 0.0;
	170	 6.11	 1.87	 4.78	 -1.04	 1.04	 11.28	 1	 9.4	 2.82	 0.0	 0.0	 0.0	 0.0	 0.0	 0.0	 0.0	 0.0	 0.0	 0.0	 0.0;
	182	 11.375	 3.01	 8.16	 -2.14	 1.04	 21.0	 1	 17.5	 5.25	 0.0	 0.0	 0.0	 0.0	 0.0	 0.0	 0.0	 0.0	 0.0	 0.0	 0.0;
	183	 17.29	 4.575	 12.4	 -3.25	 1.04	 31.92	 1	 26.6	 7.98	 0.0	 0.0	 0.0	 0.0	 0.0	 0.0	 0.0	 0.0	 0.0	 0.0	 0.0;
	189	 369.95	 81.39	 209.45	 -46.67	 1.04	 682.98	 1	 569.15	 170.75	 0.0	 0.0	 0.0	 0.0	 0.0	 0.0	 0.0	 0.0	 0.0	 0.0	 0.0;
	196	 43.875	 13.435	 34.36	 -7.49	 1.04	 81.0	 0	 67.5	 20.25	 0.0	 0.0	 0.0	 0.0	 0.0	 0.0	 0.0	 0.0	 0.0	 0.0	 0.0;
	197	 43.875	 13.435	 34.36	 -7.49	 1.04	 81.0	 0	 67.5	 20.25	 0.0	 0.0	 0.0	 0.0	 0.0	 0.0	 0.0	 0.0	 0.0	 0.0	 0.0;
];

%% generator cost data
%	2	startup	shutdown	n	c(n-1)	...	c0
mpc.gencost = [
	2	 0.0	 0.0	 3	   0.002000	  19.000000	 236.120000;
	2	 0.0	 0.0	 3	   0.002000	  19.000000	 236.120000;
	2	 0.0	 0.0	 3	   0.002000	  19.000000	 236.120000;
	2	 0.0	 0.0	 3	   0.002000	  19.000000	 236.120000;
	2	 0.0	 0.0	 3	   0.002000	  19.000000	 236.240000;
	2	 0.0	 0.0	 3	   0.000000	   0.000000	   0.000000;
	2	 0.0	 0.0	 3	   0.002000	  19.000000	 236.130000;
	2	 0.0	 0.0	 3	   0.002000	  19.000000	 236.740000;
	2	 0.0	 0.0	 3	   0.002000	  19.000000	 236.740000;
	2	 0.0	 0.0	 3	   0.002000	  19.000000	 236.740000;
	2	 0.0	 0.0	 3	   0.002000	  19.000000	 236.740000;
	2	 0.0	 0.0	 3	   0.002000	  19.000000	 236.740000;
	2	 0.0	 0.0	 3	   0.002000	  19.000000	 236.740000;
	2	 0.0	 0.0	 3	   0.002000	  23.157000	 606.000000;
	2	 0.0	 0.0	 3	   0.002000	  23.146000	 603.600000;
	2	 0.0	 0.0	 3	   0.002000	  23.252000	 627.000000;
	2	 0.0	 0.0	 3	   0.002000	  23.252000	 627.000000;
	2	 0.0	 0.0	 3	   0.002000	  23.152000	 604.800000;
	2	 0.0	 0.0	 3	   0.002000	  23.164000	 607.500000;
	2	 0.0	 0.0	 3	   0.002000	  23.173000	 609.450000;
	2	 0.0	 0.0	 3	   0.002000	  19.000000	 236.480000;
	2	 0.0	 0.0	 3	   0.000000	   0.000000	   0.000000;
	2	 0.0	 0.0	 3	   0.000000	   0.000000	   0.000000;
	2	 0.0	 0.0	 3	   0.000000	   0.000000	   0.000000;
	2	 0.0	 0.0	 3	   0.000000	   0.000000	   0.000000;
	2	 0.0	 0.0	 3	   0.002000	  19.000000	 610.140000;
	2	 0.0	 0.0	 3	   0.002000	  19.000000	 610.140000;
	2	 0.0	 0.0	 3	   0.002000	  19.000000	 610.140000;
	2	 0.0	 0.0	 3	   0.002000	  19.000000	 1261.330000;
	2	 0.0	 0.0	 3	   0.002000	  19.000000	 1261.330000;
	2	 0.0	 0.0	 3	   0.000000	   0.000000	   0.000000;
	2	 0.0	 0.0	 3	   0.002000	  19.000000	 236.140000;
	2	 0.0	 0.0	 3	   0.002000	  19.000000	 253.010000;
	2	 0.0	 0.0	 3	   0.002000	  19.000000	 253.010000;
	2	 0.0	 0.0	 3	   0.002000	  19.000000	 253.010000;
	2	 0.0	 0.0	 3	   0.002000	  19.000000	 253.010000;
	2	 0.0	 0.0	 3	   0.002000	  24.070000	 807.900000;
	2	 0.0	 0.0	 3	   0.002000	  23.211000	 618.000000;
	2	 0.0	 0.0	 3	   0.002000	  23.306000	 639.000000;
	2	 0.0	 0.0	 3	   0.002000	  23.194000	 614.100000;
	2	 0.0	 0.0	 3	   0.002000	  23.194000	 614.100000;
	2	 0.0	 0.0	 3	   0.002000	  23.194000	 614.100000;
	2	 0.0	 0.0	 3	   0.002000	  23.194000	 614.100000;
	2	 0.0	 0.0	 3	   0.002000	  23.194000	 614.100000;
	2	 0.0	 0.0	 3	   0.002000	  19.000000	 236.470000;
	2	 0.0	 0.0	 3	   0.002000	  19.000000	 236.710000;
	2	 0.0	 0.0	 3	   0.000000	   6.710000	 1272.130000;
	2	 0.0	 0.0	 3	   0.002000	  23.588000	 701.250000;
	2	 0.0	 0.0	 3	   0.002000	  23.588000	 701.250000;
];

%% branch data
%	fbus	tbus	r	x	b	rateA	rateB	rateC	ratio	angle	status	angmin	angmax
mpc.branch = [
	2	 1	 0.000673	 0.003339	 0.0	 100.0	 0.0	 0.0	 0.0	 0.0	 1	 -30.0	 30.0;
	1	 119	 0.018542	 0.119758	 0.02285	 221.1	 0.0	 0.0	 0.0	 0.0	 1	 -30.0	 30.0;
	124	 1	 0.005615	 0.036268	 0.00692	 221.1	 0.0	 0.0	 0.0	 0.0	 1	 -30.0	 30.0;
	193	 1	 0.004258	 0.027501	 0.00525	 221.1	 0.0	 0.0	 0.0	 0.0	 1	 -30.0	 30.0;
	4	 3	 0.000573	 0.003303	 0.0	 100.0	 0.0	 0.0	 0.0	 0.0	 1	 -30.0	 30.0;
	57	 3	 0.008505	 0.058098	 0.00988	 221.1	 0.0	 0.0	 0.0	 0.0	 1	 -30.0	 30.0;
	3	 137	 0.005889	 0.038035	 0.00726	 221.1	 0.0	 0.0	 0.0	 0.0	 1	 -30.0	 30.0;
	6	 5	 0.000694	 0.003337	 0.0	 100.0	 0.0	 0.0	 0.0	 0.0	 1	 -30.0	 30.0;
	48	 5	 0.006246	 0.043513	 0.00711	 221.1	 0.0	 0.0	 0.0	 0.0	 1	 -30.0	 30.0;
	5	 64	 0.007877	 0.054875	 0.00897	 221.1	 0.0	 0.0	 0.0	 0.0	 1	 -30.0	 30.0;
	8	 7	 0.000634	 0.003189	 0.0	 100.0	 0.0	 0.0	 0.0	 0.0	 1	 -30.0	 30.0;
	7	 86	 0.003756	 0.024259	 0.00463	 221.1	 0.0	 0.0	 0.0	 0.0	 1	 -30.0	 30.0;
	7	 101	 0.003597	 0.023232	 0.00443	 221.1	 0.0	 0.0	 0.0	 0.0	 1	 -30.0	 30.0;
	7	 148	 0.008667	 0.05598	 0.01068	 221.1	 0.0	 0.0	 0.0	 0.0	 1	 -30.0	 30.0;
	10	 9	 0.000585	 0.003967	 0.0	 100.0	 0.0	 0.0	 0.0	 0.0	 1	 -30.0	 30.0;
	9	 124	 0.008069	 0.055123	 0.00938	 221.1	 0.0	 0.0	 0.0	 0.0	 1	 -30.0	 30.0;
	131	 9	 0.004139	 0.026732	 0.0051	 221.1	 0.0	 0.0	 0.0	 0.0	 1	 -30.0	 30.0;
	9	 141	 0.004446	 0.03097	 0.00506	 221.1	 0.0	 0.0	 0.0	 0.0	 1	 -30.0	 30.0;
	9	 193	 0.003695	 0.025244	 0.00429	 221.1	 0.0	 0.0	 0.0	 0.0	 1	 -30.0	 30.0;
	12	 11	 0.000534	 0.003533	 0.0	 100.0	 0.0	 0.0	 0.0	 0.0	 1	 -30.0	 30.0;
	13	 11	 0.000619	 0.003606	 0.0	 100.0	 0.0	 0.0	 0.0	 0.0	 1	 -30.0	 30.0;
	11	 15	 0.010408	 0.06722	 0.01282	 221.1	 0.0	 0.0	 0.0	 0.0	 1	 -30.0	 30.0;
	11	 93	 0.018394	 0.128141	 0.02095	 221.1	 0.0	 0.0	 0.0	 0.0	 1	 -30.0	 30.0;
	158	 11	 0.008519	 0.058199	 0.0099	 221.1	 0.0	 0.0	 0.0	 0.0	 1	 -30.0	 30.0;
	15	 14	 0.000637	 0.027526	 0.0	 300.0	 0.0	 0.0	 1.0	 0.0	 1	 -30.0	 30.0;
	14	 121	 0.007013	 0.050098	 0.09134	 402.36	 0.0	 0.0	 0.0	 0.0	 1	 -30.0	 30.0;
	14	 149	 0.009133	 0.065244	 0.11895	 402.36	 0.0	 0.0	 0.0	 0.0	 1	 -30.0	 30.0;
	16	 15	 0.000553	 0.0032	 0.0	 100.0	 0.0	 0.0	 0.0	 0.0	 1	 -30.0	 30.0;
	18	 17	 0.000503	 0.003926	 0.0	 100.0	 0.0	 0.0	 0.0	 0.0	 1	 -30.0	 30.0;
	19	 17	 0.000514	 0.003079	 0.0	 100.0	 0.0	 0.0	 0.0	 0.0	 1	 -30.0	 30.0;
	20	 17	 0.000623	 0.003339	 0.0	 100.0	 0.0	 0.0	 0.0	 0.0	 1	 -30.0	 30.0;
	21	 17	 0.00062	 0.00394	 0.0	 100.0	 0.0	 0.0	 0.0	 0.0	 1	 -30.0	 30.0;
	109	 17	 0.009789	 0.068198	 0.01115	 221.1	 0.0	 0.0	 0.0	 0.0	 1	 -30.0	 30.0;
	17	 120	 0.010316	 0.070473	 0.01199	 221.1	 0.0	 0.0	 0.0	 0.0	 1	 -30.0	 30.0;
	23	 22	 0.000616	 0.003222	 0.0	 100.0	 0.0	 0.0	 0.0	 0.0	 1	 -30.0	 30.0;
	24	 22	 0.000687	 0.003067	 0.0	 100.0	 0.0	 0.0	 0.0	 0.0	 1	 -30.0	 30.0;
	22	 27	 0.011379	 0.073494	 0.01402	 221.1	 0.0	 0.0	 0.0	 0.0	 1	 -30.0	 30.0;
	158	 22	 0.012701	 0.086769	 0.01476	 221.1	 0.0	 0.0	 0.0	 0.0	 1	 -30.0	 30.0;
	26	 25	 0.00061	 0.003071	 0.0	 100.0	 0.0	 0.0	 0.0	 0.0	 1	 -30.0	 30.0;
	25	 64	 0.007643	 0.053244	 0.0087	 221.1	 0.0	 0.0	 0.0	 0.0	 1	 -30.0	 30.0;
	199	 25	 0.009909	 0.064003	 0.01221	 221.1	 0.0	 0.0	 0.0	 0.0	 1	 -30.0	 30.0;
	28	 27	 0.000587	 0.003964	 0.0	 100.0	 0.0	 0.0	 0.0	 0.0	 1	 -30.0	 30.0;
	27	 93	 0.025172	 0.175362	 0.02867	 221.1	 0.0	 0.0	 0.0	 0.0	 1	 -30.0	 30.0;
	27	 158	 0.020429	 0.131945	 0.02517	 221.1	 0.0	 0.0	 0.0	 0.0	 1	 -30.0	 30.0;
	30	 29	 0.000694	 0.003131	 0.0	 100.0	 0.0	 0.0	 0.0	 0.0	 1	 -30.0	 30.0;
	124	 29	 0.005561	 0.038742	 0.00633	 221.1	 0.0	 0.0	 0.0	 0.0	 1	 -30.0	 30.0;
	29	 140	 0.007895	 0.055004	 0.00899	 221.1	 0.0	 0.0	 0.0	 0.0	 1	 -30.0	 30.0;
	32	 31	 0.000667	 0.003884	 0.0	 100.0	 0.0	 0.0	 0.0	 0.0	 1	 -30.0	 30.0;
	33	 31	 0.000528	 0.003639	 0.0	 100.0	 0.0	 0.0	 0.0	 0.0	 1	 -30.0	 30.0;
	177	 31	 0.008406	 0.05856	 0.00957	 221.1	 0.0	 0.0	 0.0	 0.0	 1	 -30.0	 30.0;
	192	 31	 0.008088	 0.05525	 0.0094	 221.1	 0.0	 0.0	 0.0	 0.0	 1	 -30.0	 30.0;
	35	 34	 0.000575	 0.003674	 0.0	 100.0	 0.0	 0.0	 0.0	 0.0	 1	 -30.0	 30.0;
	34	 54	 0.006268	 0.042819	 0.00729	 221.1	 0.0	 0.0	 0.0	 0.0	 1	 -30.0	 30.0;
	34	 137	 0.006911	 0.044639	 0.00852	 221.1	 0.0	 0.0	 0.0	 0.0	 1	 -30.0	 30.0;
	37	 36	 0.000552	 0.003328	 0.0	 100.0	 0.0	 0.0	 0.0	 0.0	 1	 -30.0	 30.0;
	38	 36	 0.00067	 0.003511	 0.0	 100.0	 0.0	 0.0	 0.0	 0.0	 1	 -30.0	 30.0;
	58	 36	 0.010889	 0.07439	 0.01266	 221.1	 0.0	 0.0	 0.0	 0.0	 1	 -30.0	 30.0;
	83	 36	 0.009615	 0.066986	 0.01095	 221.1	 0.0	 0.0	 0.0	 0.0	 1	 -30.0	 30.0;
	40	 39	 0.000505	 0.003103	 0.0	 100.0	 0.0	 0.0	 0.0	 0.0	 1	 -30.0	 30.0;
	39	 85	 0.008702	 0.060625	 0.00991	 221.1	 0.0	 0.0	 0.0	 0.0	 1	 -30.0	 30.0;
	159	 39	 0.007332	 0.05108	 0.00835	 221.1	 0.0	 0.0	 0.0	 0.0	 1	 -30.0	 30.0;
	41	 100	 0.004595	 0.029676	 0.00566	 221.1	 0.0	 0.0	 0.0	 0.0	 1	 -30.0	 30.0;
	41	 163	 0.003165	 0.021623	 0.00368	 221.1	 0.0	 0.0	 0.0	 0.0	 1	 -30.0	 30.0;
	41	 180	 0.009408	 0.060766	 0.01159	 221.1	 0.0	 0.0	 0.0	 0.0	 1	 -30.0	 30.0;
	44	 42	 0.012256	 0.085383	 0.01396	 221.1	 0.0	 0.0	 0.0	 0.0	 1	 -30.0	 30.0;
	181	 42	 0.008008	 0.05579	 0.00912	 221.1	 0.0	 0.0	 0.0	 0.0	 1	 -30.0	 30.0;
	43	 84	 0.007509	 0.051295	 0.00873	 221.1	 0.0	 0.0	 0.0	 0.0	 1	 -30.0	 30.0;
	43	 132	 0.011052	 0.075503	 0.01285	 221.1	 0.0	 0.0	 0.0	 0.0	 1	 -30.0	 30.0;
	44	 200	 0.014813	 0.101195	 0.01722	 221.1	 0.0	 0.0	 0.0	 0.0	 1	 -30.0	 30.0;
	46	 45	 0.000936	 0.049195	 0.0	 160.0	 0.0	 0.0	 1.0	 0.0	 1	 -30.0	 30.0;
	55	 45	 0.002593	 0.018527	 0.03378	 402.36	 0.0	 0.0	 0.0	 0.0	 1	 -30.0	 30.0;
	102	 45	 0.0029	 0.020715	 0.03777	 402.36	 0.0	 0.0	 0.0	 0.0	 1	 -30.0	 30.0;
	45	 187	 0.003474	 0.024821	 0.04525	 402.36	 0.0	 0.0	 0.0	 0.0	 1	 -30.0	 30.0;
	61	 46	 0.006971	 0.048561	 0.00794	 221.1	 0.0	 0.0	 0.0	 0.0	 1	 -30.0	 30.0;
	122	 46	 0.010129	 0.065419	 0.01248	 221.1	 0.0	 0.0	 0.0	 0.0	 1	 -30.0	 30.0;
	47	 54	 0.006678	 0.045623	 0.00776	 221.1	 0.0	 0.0	 0.0	 0.0	 1	 -30.0	 30.0;
	47	 66	 0.007339	 0.047401	 0.00904	 221.1	 0.0	 0.0	 0.0	 0.0	 1	 -30.0	 30.0;
	49	 48	 0.027149	 0.532021	 0.0	 28.9	 0.0	 0.0	 1.0	 0.0	 1	 -30.0	 30.0;
	50	 48	 0.021719	 0.404167	 0.0	 28.7	 0.0	 0.0	 1.0	 0.0	 1	 -30.0	 30.0;
	51	 48	 0.027149	 0.612711	 0.0	 24.3	 0.0	 0.0	 1.0	 0.0	 1	 -30.0	 30.0;
	52	 48	 0.021719	 0.379817	 0.0	 24.3	 0.0	 0.0	 1.0	 0.0	 1	 -30.0	 30.0;
	53	 48	 0.02121	 0.576549	 0.0	 35.3	 0.0	 0.0	 1.0	 0.0	 1	 -30.0	 30.0;
	48	 74	 0.007959	 0.054369	 0.00925	 221.1	 0.0	 0.0	 0.0	 0.0	 1	 -30.0	 30.0;
	54	 66	 0.007051	 0.045544	 0.00869	 221.1	 0.0	 0.0	 0.0	 0.0	 1	 -30.0	 30.0;
	56	 55	 0.005152	 0.124653	 0.0	 160.0	 0.0	 0.0	 1.0	 0.0	 1	 -30.0	 30.0;
	81	 55	 0.005467	 0.039054	 0.0712	 402.36	 0.0	 0.0	 0.0	 0.0	 1	 -30.0	 30.0;
	55	 102	 0.001246	 0.008902	 0.01623	 402.36	 0.0	 0.0	 0.0	 0.0	 1	 -30.0	 30.0;
	55	 112	 0.004166	 0.029763	 0.05426	 402.36	 0.0	 0.0	 0.0	 0.0	 1	 -30.0	 30.0;
	55	 128	 0.003415	 0.024395	 0.04448	 402.36	 0.0	 0.0	 0.0	 0.0	 1	 -30.0	 30.0;
	56	 103	 0.004282	 0.02983	 0.00488	 221.1	 0.0	 0.0	 0.0	 0.0	 1	 -30.0	 30.0;
	57	 159	 0.00752	 0.051369	 0.00874	 221.1	 0.0	 0.0	 0.0	 0.0	 1	 -30.0	 30.0;
	95	 58	 0.009836	 0.063526	 0.01212	 221.1	 0.0	 0.0	 0.0	 0.0	 1	 -30.0	 30.0;
	177	 58	 0.014049	 0.095972	 0.01633	 221.1	 0.0	 0.0	 0.0	 0.0	 1	 -30.0	 30.0;
	59	 119	 0.011209	 0.072397	 0.01381	 221.1	 0.0	 0.0	 0.0	 0.0	 1	 -30.0	 30.0;
	59	 139	 0.009665	 0.062426	 0.01191	 221.1	 0.0	 0.0	 0.0	 0.0	 1	 -30.0	 30.0;
	60	 97	 0.012274	 0.079279	 0.01512	 221.1	 0.0	 0.0	 0.0	 0.0	 1	 -30.0	 30.0;
	134	 60	 0.009007	 0.062749	 0.01026	 221.1	 0.0	 0.0	 0.0	 0.0	 1	 -30.0	 30.0;
	61	 103	 0.006539	 0.045556	 0.00745	 221.1	 0.0	 0.0	 0.0	 0.0	 1	 -30.0	 30.0;
	159	 62	 0.008634	 0.058979	 0.01003	 221.1	 0.0	 0.0	 0.0	 0.0	 1	 -30.0	 30.0;
	160	 62	 0.007628	 0.053144	 0.00869	 221.1	 0.0	 0.0	 0.0	 0.0	 1	 -30.0	 30.0;
	63	 66	 0.011949	 0.083244	 0.01361	 221.1	 0.0	 0.0	 0.0	 0.0	 1	 -30.0	 30.0;
	63	 184	 0.017963	 0.116023	 0.02214	 221.1	 0.0	 0.0	 0.0	 0.0	 1	 -30.0	 30.0;
	65	 64	 0.00128	 0.10157	 0.0	 195.5	 0.0	 0.0	 1.0	 0.0	 1	 -30.0	 30.0;
	67	 66	 0.020951	 0.144786	 0.0	 30.0	 0.0	 0.0	 1.0	 0.0	 1	 -30.0	 30.0;
	68	 66	 0.00689	 0.264997	 0.0	 73.0	 0.0	 0.0	 1.0	 0.0	 1	 -30.0	 30.0;
	69	 66	 0.00441	 0.09499	 0.0	 70.5	 0.0	 0.0	 1.0	 0.0	 1	 -30.0	 30.0;
	70	 66	 0.00689	 0.199449	 0.0	 70.5	 0.0	 0.0	 1.0	 0.0	 1	 -30.0	 30.0;
	71	 66	 0.003528	 0.081544	 0.0	 68.0	 0.0	 0.0	 1.0	 0.0	 1	 -30.0	 30.0;
	72	 66	 0.003528	 0.074599	 0.0	 68.0	 0.0	 0.0	 1.0	 0.0	 1	 -30.0	 30.0;
	73	 66	 0.00689	 0.146423	 0.0	 65.0	 0.0	 0.0	 1.0	 0.0	 1	 -30.0	 30.0;
	66	 158	 0.004993	 0.032251	 0.00615	 221.1	 0.0	 0.0	 0.0	 0.0	 1	 -30.0	 30.0;
	74	 190	 0.008894	 0.06076	 0.01034	 221.1	 0.0	 0.0	 0.0	 0.0	 1	 -30.0	 30.0;
	76	 75	 0.038464	 0.784328	 0.0	 24.3	 0.0	 0.0	 1.0	 0.0	 1	 -30.0	 30.0;
	77	 75	 0.08013	 2.192105	 0.0	 7.4	 0.0	 0.0	 1.0	 0.0	 1	 -30.0	 30.0;
	78	 75	 0.008544	 0.181406	 0.0	 65.0	 0.0	 0.0	 1.0	 0.0	 1	 -30.0	 30.0;
	79	 75	 0.01068	 0.277774	 0.0	 62.1	 0.0	 0.0	 1.0	 0.0	 1	 -30.0	 30.0;
	108	 75	 0.010988	 0.070969	 0.01354	 221.1	 0.0	 0.0	 0.0	 0.0	 1	 -30.0	 30.0;
	75	 157	 0.013487	 0.087112	 0.01662	 221.1	 0.0	 0.0	 0.0	 0.0	 1	 -30.0	 30.0;
	80	 100	 0.021463	 0.149525	 0.02444	 221.1	 0.0	 0.0	 0.0	 0.0	 1	 -30.0	 30.0;
	80	 143	 0.020594	 0.14347	 0.02345	 221.1	 0.0	 0.0	 0.0	 0.0	 1	 -30.0	 30.0;
	82	 81	 0.00097	 0.042371	 0.0	 250.0	 0.0	 0.0	 1.0	 0.0	 1	 -30.0	 30.0;
	81	 178	 0.006598	 0.047137	 0.08594	 402.36	 0.0	 0.0	 0.0	 0.0	 1	 -30.0	 30.0;
	82	 195	 0.003845	 0.026265	 0.00447	 221.1	 0.0	 0.0	 0.0	 0.0	 1	 -30.0	 30.0;
	83	 146	 0.005382	 0.036767	 0.00626	 221.1	 0.0	 0.0	 0.0	 0.0	 1	 -30.0	 30.0;
	83	 186	 0.00792	 0.055174	 0.00902	 221.1	 0.0	 0.0	 0.0	 0.0	 1	 -30.0	 30.0;
	84	 113	 0.006652	 0.04544	 0.00773	 221.1	 0.0	 0.0	 0.0	 0.0	 1	 -30.0	 30.0;
	85	 120	 0.007786	 0.050291	 0.00959	 221.1	 0.0	 0.0	 0.0	 0.0	 1	 -30.0	 30.0;
	86	 101	 0.00512	 0.033072	 0.00631	 221.1	 0.0	 0.0	 0.0	 0.0	 1	 -30.0	 30.0;
	142	 86	 0.003387	 0.023141	 0.00394	 221.1	 0.0	 0.0	 0.0	 0.0	 1	 -30.0	 30.0;
	86	 193	 0.006606	 0.042664	 0.00814	 221.1	 0.0	 0.0	 0.0	 0.0	 1	 -30.0	 30.0;
	88	 87	 0.000832	 0.034189	 0.0	 350.0	 0.0	 0.0	 1.0	 0.0	 1	 -30.0	 30.0;
	149	 87	 0.001621	 0.011579	 0.02111	 402.36	 0.0	 0.0	 0.0	 0.0	 1	 -30.0	 30.0;
	88	 150	 0.00557	 0.035973	 0.00686	 221.1	 0.0	 0.0	 0.0	 0.0	 1	 -30.0	 30.0;
	176	 88	 0.003859	 0.024922	 0.00475	 221.1	 0.0	 0.0	 0.0	 0.0	 1	 -30.0	 30.0;
	88	 194	 0.004258	 0.029088	 0.00495	 221.1	 0.0	 0.0	 0.0	 0.0	 1	 -30.0	 30.0;
	90	 89	 0.0601	 2.279922	 0.0	 8.6	 0.0	 0.0	 1.0	 0.0	 1	 -30.0	 30.0;
	91	 89	 0.024614	 0.503424	 0.0	 32.0	 0.0	 0.0	 1.0	 0.0	 1	 -30.0	 30.0;
	92	 89	 0.019539	 0.36204	 0.0	 35.3	 0.0	 0.0	 1.0	 0.0	 1	 -30.0	 30.0;
	89	 95	 0.008734	 0.056409	 0.01076	 221.1	 0.0	 0.0	 0.0	 0.0	 1	 -30.0	 30.0;
	188	 89	 0.00805	 0.051996	 0.00992	 221.1	 0.0	 0.0	 0.0	 0.0	 1	 -30.0	 30.0;
	94	 93	 0.01068	 0.280602	 0.0	 62.1	 0.0	 0.0	 1.0	 0.0	 1	 -30.0	 30.0;
	93	 191	 0.022088	 0.142662	 0.02722	 221.1	 0.0	 0.0	 0.0	 0.0	 1	 -30.0	 30.0;
	122	 96	 0.01062	 0.073986	 0.01209	 221.1	 0.0	 0.0	 0.0	 0.0	 1	 -30.0	 30.0;
	96	 143	 0.015858	 0.102423	 0.01954	 221.1	 0.0	 0.0	 0.0	 0.0	 1	 -30.0	 30.0;
	96	 188	 0.010903	 0.070421	 0.01343	 221.1	 0.0	 0.0	 0.0	 0.0	 1	 -30.0	 30.0;
	97	 200	 0.01318	 0.085125	 0.01624	 221.1	 0.0	 0.0	 0.0	 0.0	 1	 -30.0	 30.0;
	99	 98	 0.000643	 0.030516	 0.0	 250.0	 0.0	 0.0	 1.0	 0.0	 1	 -30.0	 30.0;
	98	 123	 0.0047	 0.033574	 0.06121	 402.36	 0.0	 0.0	 0.0	 0.0	 1	 -30.0	 30.0;
	99	 142	 0.007605	 0.052982	 0.00866	 221.1	 0.0	 0.0	 0.0	 0.0	 1	 -30.0	 30.0;
	100	 174	 0.010698	 0.074531	 0.01218	 221.1	 0.0	 0.0	 0.0	 0.0	 1	 -30.0	 30.0;
	100	 179	 0.007093	 0.049413	 0.00808	 221.1	 0.0	 0.0	 0.0	 0.0	 1	 -30.0	 30.0;
	100	 184	 0.012745	 0.08879	 0.01451	 221.1	 0.0	 0.0	 0.0	 0.0	 1	 -30.0	 30.0;
	110	 101	 0.00196	 0.012657	 0.00241	 221.1	 0.0	 0.0	 0.0	 0.0	 1	 -30.0	 30.0;
	101	 117	 0.005245	 0.035833	 0.0061	 221.1	 0.0	 0.0	 0.0	 0.0	 1	 -30.0	 30.0;
	101	 141	 0.003144	 0.020305	 0.00387	 221.1	 0.0	 0.0	 0.0	 0.0	 1	 -30.0	 30.0;
	103	 102	 0.001709	 0.054578	 0.0	 250.0	 0.0	 0.0	 1.0	 0.0	 1	 -30.0	 30.0;
	104	 102	 0.0021	 0.087749	 0.0	 130.0	 0.0	 0.0	 1.0	 0.0	 1	 -30.0	 30.0;
	105	 102	 0.00097	 0.059419	 0.0	 260.0	 0.0	 0.0	 1.0	 0.0	 1	 -30.0	 30.0;
	102	 128	 0.0027	 0.019292	 0.03517	 402.36	 0.0	 0.0	 0.0	 0.0	 1	 -30.0	 30.0;
	103	 106	 0.007749	 0.053987	 0.00883	 221.1	 0.0	 0.0	 0.0	 0.0	 1	 -30.0	 30.0;
	130	 106	 0.006991	 0.047761	 0.00813	 221.1	 0.0	 0.0	 0.0	 0.0	 1	 -30.0	 30.0;
	107	 113	 0.006748	 0.046101	 0.00784	 221.1	 0.0	 0.0	 0.0	 0.0	 1	 -30.0	 30.0;
	107	 129	 0.005168	 0.035307	 0.00601	 221.1	 0.0	 0.0	 0.0	 0.0	 1	 -30.0	 30.0;
	192	 107	 0.003939	 0.025441	 0.00485	 221.1	 0.0	 0.0	 0.0	 0.0	 1	 -30.0	 30.0;
	108	 198	 0.024792	 0.160126	 0.03055	 221.1	 0.0	 0.0	 0.0	 0.0	 1	 -30.0	 30.0;
	186	 109	 0.008774	 0.059942	 0.0102	 221.1	 0.0	 0.0	 0.0	 0.0	 1	 -30.0	 30.0;
	110	 193	 0.003444	 0.022243	 0.00424	 221.1	 0.0	 0.0	 0.0	 0.0	 1	 -30.0	 30.0;
	163	 111	 0.005281	 0.034111	 0.00651	 221.1	 0.0	 0.0	 0.0	 0.0	 1	 -30.0	 30.0;
	111	 175	 0.00795	 0.055386	 0.00905	 221.1	 0.0	 0.0	 0.0	 0.0	 1	 -30.0	 30.0;
	113	 112	 0.002077	 0.058615	 0.0	 350.0	 0.0	 0.0	 1.0	 0.0	 1	 -30.0	 30.0;
	114	 112	 0.06	 0.434013	 0.0	 20.0	 0.0	 0.0	 1.0	 0.0	 1	 -30.0	 30.0;
	115	 112	 0.00128	 0.062771	 0.0	 200.0	 0.0	 0.0	 1.0	 0.0	 1	 -30.0	 30.0;
	128	 112	 0.001295	 0.009255	 0.01687	 402.36	 0.0	 0.0	 0.0	 0.0	 1	 -30.0	 30.0;
	113	 192	 0.005418	 0.034995	 0.00668	 221.1	 0.0	 0.0	 0.0	 0.0	 1	 -30.0	 30.0;
	117	 116	 0.000517	 0.034943	 0.0	 300.0	 0.0	 0.0	 1.0	 0.0	 1	 -30.0	 30.0;
	133	 116	 0.00389	 0.027793	 0.05067	 402.36	 0.0	 0.0	 0.0	 0.0	 1	 -30.0	 30.0;
	117	 132	 0.011912	 0.082984	 0.01357	 221.1	 0.0	 0.0	 0.0	 0.0	 1	 -30.0	 30.0;
	117	 162	 0.01617	 0.104442	 0.01993	 221.1	 0.0	 0.0	 0.0	 0.0	 1	 -30.0	 30.0;
	131	 118	 0.00718	 0.046377	 0.00885	 221.1	 0.0	 0.0	 0.0	 0.0	 1	 -30.0	 30.0;
	118	 134	 0.011598	 0.0808	 0.01321	 221.1	 0.0	 0.0	 0.0	 0.0	 1	 -30.0	 30.0;
	118	 198	 0.009487	 0.064809	 0.01103	 221.1	 0.0	 0.0	 0.0	 0.0	 1	 -30.0	 30.0;
	122	 121	 0.000786	 0.063023	 0.0	 200.0	 0.0	 0.0	 1.0	 0.0	 1	 -30.0	 30.0;
	121	 178	 0.008903	 0.063604	 0.11596	 402.36	 0.0	 0.0	 0.0	 0.0	 1	 -30.0	 30.0;
	187	 121	 0.001063	 0.007593	 0.01384	 402.36	 0.0	 0.0	 0.0	 0.0	 1	 -30.0	 30.0;
	124	 123	 0.000329	 0.017481	 0.0	 400.0	 0.0	 0.0	 1.0	 0.0	 1	 -30.0	 30.0;
	125	 123	 0.00448	 0.104562	 0.0	 170.0	 0.0	 0.0	 1.0	 0.0	 1	 -30.0	 30.0;
	126	 123	 0.00148	 0.066043	 0.0	 170.0	 0.0	 0.0	 1.0	 0.0	 1	 -30.0	 30.0;
	127	 123	 0.001	 0.031691	 0.0	 170.0	 0.0	 0.0	 1.0	 0.0	 1	 -30.0	 30.0;
	123	 133	 0.001459	 0.010423	 0.019	 402.36	 0.0	 0.0	 0.0	 0.0	 1	 -30.0	 30.0;
	156	 123	 0.001117	 0.007981	 0.01455	 402.36	 0.0	 0.0	 0.0	 0.0	 1	 -30.0	 30.0;
	124	 193	 0.006577	 0.04582	 0.00749	 221.1	 0.0	 0.0	 0.0	 0.0	 1	 -30.0	 30.0;
	129	 128	 0.000753	 0.044453	 0.0	 250.0	 0.0	 0.0	 1.0	 0.0	 1	 -30.0	 30.0;
	128	 133	 0.009554	 0.068257	 0.12444	 402.36	 0.0	 0.0	 0.0	 0.0	 1	 -30.0	 30.0;
	130	 144	 0.022678	 0.157988	 0.02583	 221.1	 0.0	 0.0	 0.0	 0.0	 1	 -30.0	 30.0;
	134	 133	 0.0002	 0.013328	 0.0	 400.0	 0.0	 0.0	 1.0	 0.0	 1	 -30.0	 30.0;
	135	 133	 0.00043	 0.033512	 0.0	 580.0	 0.0	 0.0	 1.0	 0.0	 1	 -30.0	 30.0;
	136	 133	 0.00043	 0.027478	 0.0	 580.0	 0.0	 0.0	 1.0	 0.0	 1	 -30.0	 30.0;
	156	 133	 0.001958	 0.013985	 0.0255	 402.36	 0.0	 0.0	 0.0	 0.0	 1	 -30.0	 30.0;
	134	 140	 0.010445	 0.071357	 0.01214	 221.1	 0.0	 0.0	 0.0	 0.0	 1	 -30.0	 30.0;
	134	 186	 0.014463	 0.093412	 0.01782	 221.1	 0.0	 0.0	 0.0	 0.0	 1	 -30.0	 30.0;
...
];

% INFO    : === Translation Options ===
% INFO    : Phase Angle Bound:           30.0 (deg.)
% INFO    : Setting Flat Start
% INFO    : 
% INFO    : === Voltage Setpoint Replacement Notes ===
% INFO    : Bus 1	: V=0.9987253, theta=-36.484845 -> V=1.0, theta=0.0
% INFO    : Bus 2	: V=0.9985471, theta=-36.504646 -> V=1.0, theta=0.0
% INFO    : Bus 3	: V=1.0103316, theta=-38.186132 -> V=1.0, theta=0.0
% INFO    : Bus 4	: V=1.0102908, theta=-38.190918 -> V=1.0, theta=0.0
% INFO    : Bus 5	: V=1.0231747, theta=-38.81435 -> V=1.0, theta=0.0
% INFO    : Bus 6	: V=1.0229736, theta=-38.835837 -> V=1.0, theta=0.0
% INFO    : Bus 7	: V=0.9895163, theta=-37.640747 -> V=1.0, theta=0.0
% INFO    : Bus 8	: V=0.9889666, theta=-37.702748 -> V=1.0, theta=0.0
% INFO    : Bus 9	: V=0.9939302, theta=-37.023795 -> V=1.0, theta=0.0
% INFO    : Bus 10	: V=0.9928336, theta=-37.163436 -> V=1.0, theta=0.0
% INFO    : Bus 11	: V=1.0349069, theta=-35.627278 -> V=1.0, theta=0.0
% INFO    : Bus 12	: V=1.0348996, theta=-35.628157 -> V=1.0, theta=0.0
% INFO    : Bus 13	: V=1.0348425, theta=-35.634698 -> V=1.0, theta=0.0
% INFO    : Bus 14	: V=1.0331195, theta=-34.381983 -> V=1.0, theta=0.0
% INFO    : Bus 15	: V=1.0355891, theta=-35.497711 -> V=1.0, theta=0.0
% INFO    : Bus 16	: V=1.0345716, theta=-35.61438 -> V=1.0, theta=0.0
% INFO    : Bus 17	: V=1.0011339, theta=-39.161689 -> V=1.0, theta=0.0
% INFO    : Bus 18	: V=1.0011154, theta=-39.164163 -> V=1.0, theta=0.0
% INFO    : Bus 19	: V=1.0011168, theta=-39.163754 -> V=1.0, theta=0.0
% INFO    : Bus 20	: V=1.0011054, theta=-39.164968 -> V=1.0, theta=0.0
% INFO    : Bus 21	: V=1.0010054, theta=-39.177564 -> V=1.0, theta=0.0
% INFO    : Bus 22	: V=1.0344601, theta=-35.650737 -> V=1.0, theta=0.0
% INFO    : Bus 23	: V=1.0344265, theta=-35.654423 -> V=1.0, theta=0.0
% INFO    : Bus 24	: V=1.0344021, theta=-35.65664 -> V=1.0, theta=0.0
% INFO    : Bus 25	: V=1.0257099, theta=-39.09735 -> V=1.0, theta=0.0
% INFO    : Bus 26	: V=1.0256791, theta=-39.100707 -> V=1.0, theta=0.0
% INFO    : Bus 27	: V=1.0350538, theta=-35.782451 -> V=1.0, theta=0.0
% INFO    : Bus 28	: V=1.0349918, theta=-35.79004 -> V=1.0, theta=0.0
% INFO    : Bus 29	: V=0.9988561, theta=-36.226215 -> V=1.0, theta=0.0
% INFO    : Bus 30	: V=0.9974594, theta=-36.374027 -> V=1.0, theta=0.0
% INFO    : Bus 31	: V=0.9993814, theta=-39.56236 -> V=1.0, theta=0.0
% INFO    : Bus 32	: V=0.9993689, theta=-39.563847 -> V=1.0, theta=0.0
% INFO    : Bus 33	: V=0.9992433, theta=-39.580004 -> V=1.0, theta=0.0
% INFO    : Bus 34	: V=1.017926, theta=-36.92968 -> V=1.0, theta=0.0
% INFO    : Bus 35	: V=1.017395, theta=-36.994263 -> V=1.0, theta=0.0
% INFO    : Bus 36	: V=1.0059315, theta=-39.693345 -> V=1.0, theta=0.0
% INFO    : Bus 37	: V=1.0058586, theta=-39.702124 -> V=1.0, theta=0.0
% INFO    : Bus 38	: V=1.0052524, theta=-39.770111 -> V=1.0, theta=0.0
% INFO    : Bus 39	: V=0.9988683, theta=-39.913488 -> V=1.0, theta=0.0
% INFO    : Bus 40	: V=0.9988227, theta=-39.919055 -> V=1.0, theta=0.0
% INFO    : Bus 41	: V=1.0150375, theta=-41.826757 -> V=1.0, theta=0.0
% INFO    : Bus 42	: V=1.0070583, theta=-38.646358 -> V=1.0, theta=0.0
% INFO    : Bus 43	: V=0.9943791, theta=-38.626607 -> V=1.0, theta=0.0
% INFO    : Bus 44	: V=1.004904, theta=-38.490044 -> V=1.0, theta=0.0
% INFO    : Bus 45	: V=1.0277558, theta=-33.752015 -> V=1.0, theta=0.0
% INFO    : Bus 46	: V=1.0252088, theta=-34.633271 -> V=1.0, theta=0.0
% INFO    : Bus 47	: V=1.0316417, theta=-35.017317 -> V=1.0, theta=0.0
% INFO    : Bus 48	: V=1.0204693, theta=-39.106063 -> V=1.0, theta=0.0
% INFO    : Bus 49	: V=1.0322808, theta=-37.826268 -> V=1.0, theta=0.0
% INFO    : Bus 50	: V=1.0295607, theta=-38.132551 -> V=1.0, theta=0.0
% INFO    : Bus 51	: V=1.0338254, theta=-37.629606 -> V=1.0, theta=0.0
% INFO    : Bus 52	: V=1.0290833, theta=-38.19229 -> V=1.0, theta=0.0
% INFO    : Bus 53	: V=1.04, theta=-36.320835 -> V=1.0, theta=0.0
% INFO    : Bus 54	: V=1.0279093, theta=-35.518225 -> V=1.0, theta=0.0
% INFO    : Bus 55	: V=1.0247171, theta=-34.507306 -> V=1.0, theta=0.0
% INFO    : Bus 56	: V=1.0231808, theta=-34.882556 -> V=1.0, theta=0.0
% INFO    : Bus 57	: V=1.0055562, theta=-38.958227 -> V=1.0, theta=0.0
% INFO    : Bus 58	: V=1.0130443, theta=-39.471071 -> V=1.0, theta=0.0
% INFO    : Bus 59	: V=0.9916953, theta=-39.285283 -> V=1.0, theta=0.0
% INFO    : Bus 60	: V=1.0135099, theta=-35.185033 -> V=1.0, theta=0.0
% INFO    : Bus 61	: V=1.0213539, theta=-35.141536 -> V=1.0, theta=0.0
% INFO    : Bus 62	: V=1.0013273, theta=-39.623617 -> V=1.0, theta=0.0
% INFO    : Bus 63	: V=1.027569, theta=-37.020582 -> V=1.0, theta=0.0
% INFO    : Bus 64	: V=1.0291107, theta=-38.087884 -> V=1.0, theta=0.0
% INFO    : Bus 65	: V=1.04, theta=-34.796049 -> V=1.0, theta=0.0
% INFO    : Bus 66	: V=1.0357844, theta=-34.438374 -> V=1.0, theta=0.0
% INFO    : Bus 67	: V=1.039763, theta=-34.100753 -> V=1.0, theta=0.0
% INFO    : Bus 68	: V=1.04, theta=-30.506916 -> V=1.0, theta=0.0
% INFO    : Bus 69	: V=1.04, theta=-33.036192 -> V=1.0, theta=0.0
% INFO    : Bus 70	: V=1.04, theta=-31.482346 -> V=1.0, theta=0.0
% INFO    : Bus 71	: V=1.04, theta=-33.235699 -> V=1.0, theta=0.0
% INFO    : Bus 72	: V=1.04, theta=-33.339534 -> V=1.0, theta=0.0
% INFO    : Bus 73	: V=1.04, theta=-32.271523 -> V=1.0, theta=0.0
% INFO    : Bus 74	: V=1.0095407, theta=-40.161028 -> V=1.0, theta=0.0
% INFO    : Bus 75	: V=1.0145111, theta=-34.715113 -> V=1.0, theta=0.0
% INFO    : Bus 76	: V=1.030452, theta=-34.242271 -> V=1.0, theta=0.0
% INFO    : Bus 77	: V=1.0399996, theta=-33.909675 -> V=1.0, theta=0.0
% INFO    : Bus 78	: V=1.0145111, theta=-34.715113 -> V=1.0, theta=0.0
% INFO    : Bus 79	: V=1.0145111, theta=-34.715113 -> V=1.0, theta=0.0
% INFO    : Bus 80	: V=1.0176234, theta=-40.507786 -> V=1.0, theta=0.0
% INFO    : Bus 81	: V=1.0198084, theta=-36.318888 -> V=1.0, theta=0.0
% INFO    : Bus 82	: V=1.0148957, theta=-37.611244 -> V=1.0, theta=0.0
% INFO    : Bus 83	: V=1.012163, theta=-38.235649 -> V=1.0, theta=0.0
% INFO    : Bus 84	: V=0.9974352, theta=-38.576435 -> V=1.0, theta=0.0
% INFO    : Bus 85	: V=0.998593, theta=-39.876466 -> V=1.0, theta=0.0
% INFO    : Bus 86	: V=0.9914831, theta=-37.33722 -> V=1.0, theta=0.0
% INFO    : Bus 87	: V=1.0239312, theta=-34.425784 -> V=1.0, theta=0.0
% INFO    : Bus 88	: V=1.0179159, theta=-36.548316 -> V=1.0, theta=0.0
% INFO    : Bus 89	: V=1.0153373, theta=-38.730979 -> V=1.0, theta=0.0
% INFO    : Bus 90	: V=1.0400527, theta=-37.57943 -> V=1.0, theta=0.0
% INFO    : Bus 91	: V=1.0281598, theta=-38.350971 -> V=1.0, theta=0.0
% INFO    : Bus 92	: V=1.0153373, theta=-38.730979 -> V=1.0, theta=0.0
% INFO    : Bus 93	: V=1.0338729, theta=-36.46476 -> V=1.0, theta=0.0
% INFO    : Bus 94	: V=1.04, theta=-33.783748 -> V=1.0, theta=0.0
% INFO    : Bus 95	: V=1.0232285, theta=-39.22667 -> V=1.0, theta=0.0
% INFO    : Bus 96	: V=1.0213953, theta=-36.538532 -> V=1.0, theta=0.0
% INFO    : Bus 97	: V=1.0071893, theta=-36.745569 -> V=1.0, theta=0.0
% INFO    : Bus 98	: V=1.011373, theta=-33.812716 -> V=1.0, theta=0.0
% INFO    : Bus 99	: V=1.0042577, theta=-35.251722 -> V=1.0, theta=0.0
% INFO    : Bus 100	: V=1.0247974, theta=-41.244916 -> V=1.0, theta=0.0
% INFO    : Bus 101	: V=0.9929976, theta=-37.226845 -> V=1.0, theta=0.0
% INFO    : Bus 102	: V=1.0264281, theta=-34.196747 -> V=1.0, theta=0.0
% INFO    : Bus 103	: V=1.0228028, theta=-34.942196 -> V=1.0, theta=0.0
% INFO    : Bus 104	: V=1.04, theta=-31.764889 -> V=1.0, theta=0.0
% INFO    : Bus 105	: V=1.04, theta=-32.199518 -> V=1.0, theta=0.0
% INFO    : Bus 106	: V=1.0183205, theta=-35.532764 -> V=1.0, theta=0.0
% INFO    : Bus 107	: V=0.9937757, theta=-39.401922 -> V=1.0, theta=0.0
% INFO    : Bus 108	: V=1.009449, theta=-35.497994 -> V=1.0, theta=0.0
% INFO    : Bus 109	: V=1.0053316, theta=-38.276135 -> V=1.0, theta=0.0
% INFO    : Bus 110	: V=0.993136, theta=-37.186933 -> V=1.0, theta=0.0
% INFO    : Bus 111	: V=1.0102879, theta=-42.063077 -> V=1.0, theta=0.0
% INFO    : Bus 112	: V=1.020933, theta=-34.8794 -> V=1.0, theta=0.0
% INFO    : Bus 113	: V=1.0008686, theta=-38.390099 -> V=1.0, theta=0.0
% INFO    : Bus 114	: V=1.0230842, theta=-34.634125 -> V=1.0, theta=0.0
% INFO    : Bus 115	: V=1.0399997, theta=-32.355944 -> V=1.0, theta=0.0
% INFO    : Bus 116	: V=1.0104285, theta=-34.168369 -> V=1.0, theta=0.0
% INFO    : Bus 117	: V=0.999201, theta=-36.643951 -> V=1.0, theta=0.0
% INFO    : Bus 118	: V=1.0033711, theta=-35.972147 -> V=1.0, theta=0.0
% INFO    : Bus 119	: V=0.9895964, theta=-38.886846 -> V=1.0, theta=0.0
% INFO    : Bus 120	: V=0.9996053, theta=-39.627558 -> V=1.0, theta=0.0
% INFO    : Bus 121	: V=1.0324816, theta=-32.772229 -> V=1.0, theta=0.0
% INFO    : Bus 122	: V=1.0262679, theta=-34.804698 -> V=1.0, theta=0.0
% INFO    : Bus 123	: V=1.0221851, theta=-32.299716 -> V=1.0, theta=0.0
% INFO    : Bus 124	: V=1.0082927, theta=-34.986017 -> V=1.0, theta=0.0
% INFO    : Bus 125	: V=1.04, theta=-25.00025 -> V=1.0, theta=0.0
% INFO    : Bus 126	: V=1.04, theta=-27.689867 -> V=1.0, theta=0.0
% INFO    : Bus 127	: V=1.0399998, theta=-30.108481 -> V=1.0, theta=0.0
% INFO    : Bus 128	: V=1.0203933, theta=-34.83526 -> V=1.0, theta=0.0
% INFO    : Bus 129	: V=0.9994277, theta=-38.546988 -> V=1.0, theta=0.0
% INFO    : Bus 130	: V=1.0145653, theta=-35.984118 -> V=1.0, theta=0.0
% INFO    : Bus 131	: V=0.9940677, theta=-37.05827 -> V=1.0, theta=0.0
% INFO    : Bus 132	: V=0.9900854, theta=-38.563865 -> V=1.0, theta=0.0
% INFO    : Bus 133	: V=1.0242435, theta=-32.306364 -> V=1.0, theta=0.0
% INFO    : Bus 134	: V=1.0195573, theta=-33.769344 -> V=1.0, theta=0.0
% INFO    : Bus 135	: V=1.04, theta=-28.408423 -> V=1.0, theta=0.0
% INFO    : Bus 136	: V=1.04, theta=-29.416358 -> V=1.0, theta=0.0
% INFO    : Bus 137	: V=1.0137634, theta=-37.627525 -> V=1.0, theta=0.0
% INFO    : Bus 138	: V=1.0078133, theta=-38.579746 -> V=1.0, theta=0.0
% INFO    : Bus 139	: V=0.9946733, theta=-39.376811 -> V=1.0, theta=0.0
% INFO    : Bus 140	: V=1.0063156, theta=-35.35143 -> V=1.0, theta=0.0
% INFO    : Bus 141	: V=0.9930708, theta=-37.183069 -> V=1.0, theta=0.0
% INFO    : Bus 142	: V=0.9914475, theta=-37.194045 -> V=1.0, theta=0.0
% INFO    : Bus 143	: V=1.008897, theta=-39.577922 -> V=1.0, theta=0.0
% INFO    : Bus 144	: V=1.0037721, theta=-36.964329 -> V=1.0, theta=0.0
% INFO    : Bus 145	: V=1.0093721, theta=-37.694371 -> V=1.0, theta=0.0
% INFO    : Bus 146	: V=1.0169636, theta=-38.0211 -> V=1.0, theta=0.0
% INFO    : Bus 147	: V=1.0381577, theta=-35.728968 -> V=1.0, theta=0.0
% INFO    : Bus 148	: V=0.9849749, theta=-38.239004 -> V=1.0, theta=0.0
% INFO    : Bus 149	: V=1.0276389, theta=-33.725517 -> V=1.0, theta=0.0
% INFO    : Bus 150	: V=1.0233662, theta=-35.739007 -> V=1.0, theta=0.0
% INFO    : Bus 151	: V=1.04, theta=-31.937978 -> V=1.0, theta=0.0
% INFO    : Bus 152	: V=1.04, theta=-27.865328 -> V=1.0, theta=0.0
% INFO    : Bus 153	: V=1.04, theta=-26.089597 -> V=1.0, theta=0.0
% INFO    : Bus 154	: V=1.04, theta=-29.478111 -> V=1.0, theta=0.0
% INFO    : Bus 155	: V=1.04, theta=-29.607317 -> V=1.0, theta=0.0
% INFO    : Bus 156	: V=1.0223269, theta=-32.427279 -> V=1.0, theta=0.0
% INFO    : Bus 157	: V=1.0187677, theta=-33.574016 -> V=1.0, theta=0.0
% INFO    : Bus 158	: V=1.034686, theta=-35.213704 -> V=1.0, theta=0.0
% INFO    : Bus 159	: V=1.0019767, theta=-39.516135 -> V=1.0, theta=0.0
% INFO    : Bus 160	: V=1.0081743, theta=-38.723814 -> V=1.0, theta=0.0
% INFO    : Bus 161	: V=1.0081743, theta=-38.723814 -> V=1.0, theta=0.0
% INFO    : Bus 162	: V=1.0024632, theta=-36.906507 -> V=1.0, theta=0.0
% INFO    : Bus 163	: V=1.0123536, theta=-41.843199 -> V=1.0, theta=0.0
% INFO    : Bus 164	: V=1.0123536, theta=-41.843199 -> V=1.0, theta=0.0
% INFO    : Bus 165	: V=1.0123536, theta=-41.843199 -> V=1.0, theta=0.0
% INFO    : Bus 166	: V=1.0123536, theta=-41.843199 -> V=1.0, theta=0.0
% INFO    : Bus 167	: V=1.0218227, theta=-41.564013 -> V=1.0, theta=0.0
% INFO    : Bus 168	: V=1.0123536, theta=-41.843199 -> V=1.0, theta=0.0
% INFO    : Bus 169	: V=1.0123536, theta=-41.843199 -> V=1.0, theta=0.0
% INFO    : Bus 170	: V=1.0301529, theta=-41.305336 -> V=1.0, theta=0.0
% INFO    : Bus 171	: V=1.0060941, theta=-39.656251 -> V=1.0, theta=0.0
% INFO    : Bus 172	: V=1.018887, theta=-40.984003 -> V=1.0, theta=0.0
% INFO    : Bus 173	: V=1.0119075, theta=-41.57088 -> V=1.0, theta=0.0
% INFO    : Bus 174	: V=1.0204429, theta=-40.065498 -> V=1.0, theta=0.0
% INFO    : Bus 175	: V=1.0099292, theta=-41.994472 -> V=1.0, theta=0.0
% INFO    : Bus 176	: V=1.0131194, theta=-37.170943 -> V=1.0, theta=0.0
% INFO    : Bus 177	: V=1.0073091, theta=-39.250774 -> V=1.0, theta=0.0
% INFO    : Bus 178	: V=1.019565, theta=-37.089357 -> V=1.0, theta=0.0
% INFO    : Bus 179	: V=1.0183811, theta=-40.152559 -> V=1.0, theta=0.0
% INFO    : Bus 180	: V=1.0184757, theta=-40.98553 -> V=1.0, theta=0.0
% INFO    : Bus 181	: V=1.0118841, theta=-38.230887 -> V=1.0, theta=0.0
% INFO    : Bus 182	: V=1.0359846, theta=-35.430907 -> V=1.0, theta=0.0
% INFO    : Bus 183	: V=1.0264683, theta=-36.58583 -> V=1.0, theta=0.0
% INFO    : Bus 184	: V=1.0223367, theta=-39.874601 -> V=1.0, theta=0.0
% INFO    : Bus 185	: V=1.0130106, theta=-37.196027 -> V=1.0, theta=0.0
% INFO    : Bus 186	: V=1.0108151, theta=-37.232587 -> V=1.0, theta=0.0
% INFO    : Bus 187	: V=1.03501, theta=-31.777405 -> V=1.0, theta=0.0
% INFO    : Bus 188	: V=1.0260971, theta=-35.97214 -> V=1.0, theta=0.0
% INFO    : Bus 189	: V=1.04, theta=-29.418352 -> V=1.0, theta=0.0
% INFO    : Bus 190	: V=1.0045903, theta=-40.38272 -> V=1.0, theta=0.0
% INFO    : Bus 191	: V=1.0244728, theta=-38.931208 -> V=1.0, theta=0.0
% INFO    : Bus 192	: V=0.9936463, theta=-39.564117 -> V=1.0, theta=0.0
% INFO    : Bus 193	: V=0.9949034, theta=-36.917745 -> V=1.0, theta=0.0
% INFO    : Bus 194	: V=1.0203914, theta=-37.041793 -> V=1.0, theta=0.0
% INFO    : Bus 195	: V=1.0115779, theta=-38.232512 -> V=1.0, theta=0.0
% INFO    : Bus 196	: V=1.0115779, theta=-38.232512 -> V=1.0, theta=0.0
% INFO    : Bus 197	: V=1.0115779, theta=-38.232512 -> V=1.0, theta=0.0
% INFO    : Bus 198	: V=1.0044686, theta=-36.042435 -> V=1.0, theta=0.0
% INFO    : Bus 199	: V=1.0216683, theta=-40.242031 -> V=1.0, theta=0.0
% INFO    : Bus 200	: V=1.0037141, theta=-37.924332 -> V=1.0, theta=0.0
% INFO    : 
% INFO    : === Generator Setpoint Replacement Notes ===
% INFO    : Gen at bus 49	: Pg=4.53, Qg=2.11 -> Pg=2.945, Qg=0.78
% INFO    : Gen at bus 50	: Pg=4.53, Qg=2.11 -> Pg=2.945, Qg=0.78
% INFO    : Gen at bus 51	: Pg=4.53, Qg=2.11 -> Pg=2.945, Qg=0.78
% INFO    : Gen at bus 52	: Pg=4.53, Qg=2.11 -> Pg=2.945, Qg=0.78
% INFO    : Gen at bus 53	: Pg=9.07, Qg=3.41 -> Pg=5.895, Qg=1.56
% INFO    : Gen at bus 65	: Pg=60.66, Qg=12.12 -> Pg=97.76, Qg=5.19
% INFO    : Gen at bus 67	: Pg=4.7, Qg=2.19 -> Pg=3.055, Qg=0.81
% INFO    : Gen at bus 68	: Pg=27.92, Qg=1.89 -> Pg=18.15, Qg=4.8
% INFO    : Gen at bus 69	: Pg=27.92, Qg=3.66 -> Pg=18.15, Qg=4.8
% INFO    : Gen at bus 70	: Pg=27.92, Qg=1.95 -> Pg=18.15, Qg=4.8
% INFO    : Gen at bus 71	: Pg=27.92, Qg=4.46 -> Pg=18.15, Qg=4.8
% INFO    : Gen at bus 72	: Pg=27.92, Qg=4.82 -> Pg=18.15, Qg=4.8
% INFO    : Gen at bus 73	: Pg=27.92, Qg=2.21 -> Pg=18.15, Qg=4.8
% INFO    : Gen at bus 76	: Pg=1.2, Qg=2.04 -> Pg=2.6, Qg=0.8
...